*SPEF "ieee 1481-1999"
*DESIGN "wb_memory"
*DATE "11:11:11 Fri 11 11, 1111"
*VENDOR "OpenRCX"
*PROGRAM "Parallel Extraction"
*VERSION "1.0"
*DESIGN_FLOW "NAME_SCOPE LOCAL" "PIN_CAP NONE"
*DIVIDER /
*DELIMITER :
*BUS_DELIMITER []
*T_UNIT 1 NS
*C_UNIT 1 PF
*R_UNIT 1 OHM
*L_UNIT 1 HENRY

*NAME_MAP
*1 addr_mem0[0]
*2 addr_mem0[1]
*3 addr_mem0[2]
*4 addr_mem0[3]
*5 addr_mem0[4]
*6 addr_mem0[5]
*7 addr_mem0[6]
*8 addr_mem0[7]
*9 addr_mem0[8]
*10 addr_mem1[0]
*11 addr_mem1[1]
*12 addr_mem1[2]
*13 addr_mem1[3]
*14 addr_mem1[4]
*15 addr_mem1[5]
*16 addr_mem1[6]
*17 addr_mem1[7]
*18 addr_mem1[8]
*19 net240
*20 net241
*21 din_mem0[0]
*22 din_mem0[10]
*23 din_mem0[11]
*24 din_mem0[12]
*25 din_mem0[13]
*26 din_mem0[14]
*27 din_mem0[15]
*28 din_mem0[16]
*29 din_mem0[17]
*30 din_mem0[18]
*31 din_mem0[19]
*32 din_mem0[1]
*33 din_mem0[20]
*34 din_mem0[21]
*35 din_mem0[22]
*36 din_mem0[23]
*37 din_mem0[24]
*38 din_mem0[25]
*39 din_mem0[26]
*40 din_mem0[27]
*41 din_mem0[28]
*42 din_mem0[29]
*43 din_mem0[2]
*44 din_mem0[30]
*45 din_mem0[31]
*46 din_mem0[3]
*47 din_mem0[4]
*48 din_mem0[5]
*49 din_mem0[6]
*50 din_mem0[7]
*51 din_mem0[8]
*52 din_mem0[9]
*53 din_mem1[0]
*54 din_mem1[10]
*55 din_mem1[11]
*56 din_mem1[12]
*57 din_mem1[13]
*58 din_mem1[14]
*59 din_mem1[15]
*60 din_mem1[16]
*61 din_mem1[17]
*62 din_mem1[18]
*63 din_mem1[19]
*64 din_mem1[1]
*65 din_mem1[20]
*66 din_mem1[21]
*67 din_mem1[22]
*68 din_mem1[23]
*69 din_mem1[24]
*70 din_mem1[25]
*71 din_mem1[26]
*72 din_mem1[27]
*73 din_mem1[28]
*74 din_mem1[29]
*75 din_mem1[2]
*76 din_mem1[30]
*77 din_mem1[31]
*78 din_mem1[3]
*79 din_mem1[4]
*80 din_mem1[5]
*81 din_mem1[6]
*82 din_mem1[7]
*83 din_mem1[8]
*84 din_mem1[9]
*85 dout_mem0[0]
*86 dout_mem0[10]
*87 dout_mem0[11]
*88 dout_mem0[12]
*89 dout_mem0[13]
*90 dout_mem0[14]
*91 dout_mem0[15]
*92 dout_mem0[16]
*93 dout_mem0[17]
*94 dout_mem0[18]
*95 dout_mem0[19]
*96 dout_mem0[1]
*97 dout_mem0[20]
*98 dout_mem0[21]
*99 dout_mem0[22]
*100 dout_mem0[23]
*101 dout_mem0[24]
*102 dout_mem0[25]
*103 dout_mem0[26]
*104 dout_mem0[27]
*105 dout_mem0[28]
*106 dout_mem0[29]
*107 dout_mem0[2]
*108 dout_mem0[30]
*109 dout_mem0[31]
*110 dout_mem0[3]
*111 dout_mem0[4]
*112 dout_mem0[5]
*113 dout_mem0[6]
*114 dout_mem0[7]
*115 dout_mem0[8]
*116 dout_mem0[9]
*117 dout_mem1[0]
*118 dout_mem1[10]
*119 dout_mem1[11]
*120 dout_mem1[12]
*121 dout_mem1[13]
*122 dout_mem1[14]
*123 dout_mem1[15]
*124 dout_mem1[16]
*125 dout_mem1[17]
*126 dout_mem1[18]
*127 dout_mem1[19]
*128 dout_mem1[1]
*129 dout_mem1[20]
*130 dout_mem1[21]
*131 dout_mem1[22]
*132 dout_mem1[23]
*133 dout_mem1[24]
*134 dout_mem1[25]
*135 dout_mem1[26]
*136 dout_mem1[27]
*137 dout_mem1[28]
*138 dout_mem1[29]
*139 dout_mem1[2]
*140 dout_mem1[30]
*141 dout_mem1[31]
*142 dout_mem1[3]
*143 dout_mem1[4]
*144 dout_mem1[5]
*145 dout_mem1[6]
*146 dout_mem1[7]
*147 dout_mem1[8]
*148 dout_mem1[9]
*149 io_wbs_ack
*150 io_wbs_adr[0]
*151 io_wbs_adr[10]
*152 io_wbs_adr[11]
*153 io_wbs_adr[12]
*154 io_wbs_adr[13]
*155 io_wbs_adr[14]
*156 io_wbs_adr[15]
*157 io_wbs_adr[16]
*158 io_wbs_adr[17]
*159 io_wbs_adr[18]
*160 io_wbs_adr[19]
*161 io_wbs_adr[1]
*162 io_wbs_adr[20]
*163 io_wbs_adr[21]
*164 io_wbs_adr[22]
*165 io_wbs_adr[23]
*166 io_wbs_adr[24]
*167 io_wbs_adr[25]
*168 io_wbs_adr[26]
*169 io_wbs_adr[27]
*170 io_wbs_adr[28]
*171 io_wbs_adr[29]
*172 io_wbs_adr[2]
*173 io_wbs_adr[30]
*174 io_wbs_adr[31]
*175 io_wbs_adr[3]
*176 io_wbs_adr[4]
*177 io_wbs_adr[5]
*178 io_wbs_adr[6]
*179 io_wbs_adr[7]
*180 io_wbs_adr[8]
*181 io_wbs_adr[9]
*182 io_wbs_clk
*183 io_wbs_cyc
*184 io_wbs_datrd[0]
*185 io_wbs_datrd[10]
*186 io_wbs_datrd[11]
*187 io_wbs_datrd[12]
*188 io_wbs_datrd[13]
*189 io_wbs_datrd[14]
*190 io_wbs_datrd[15]
*191 io_wbs_datrd[16]
*192 io_wbs_datrd[17]
*193 io_wbs_datrd[18]
*194 io_wbs_datrd[19]
*195 io_wbs_datrd[1]
*196 io_wbs_datrd[20]
*197 io_wbs_datrd[21]
*198 io_wbs_datrd[22]
*199 io_wbs_datrd[23]
*200 io_wbs_datrd[24]
*201 io_wbs_datrd[25]
*202 io_wbs_datrd[26]
*203 io_wbs_datrd[27]
*204 io_wbs_datrd[28]
*205 io_wbs_datrd[29]
*206 io_wbs_datrd[2]
*207 io_wbs_datrd[30]
*208 io_wbs_datrd[31]
*209 io_wbs_datrd[3]
*210 io_wbs_datrd[4]
*211 io_wbs_datrd[5]
*212 io_wbs_datrd[6]
*213 io_wbs_datrd[7]
*214 io_wbs_datrd[8]
*215 io_wbs_datrd[9]
*216 io_wbs_datwr[0]
*217 io_wbs_datwr[10]
*218 io_wbs_datwr[11]
*219 io_wbs_datwr[12]
*220 io_wbs_datwr[13]
*221 io_wbs_datwr[14]
*222 io_wbs_datwr[15]
*223 io_wbs_datwr[16]
*224 io_wbs_datwr[17]
*225 io_wbs_datwr[18]
*226 io_wbs_datwr[19]
*227 io_wbs_datwr[1]
*228 io_wbs_datwr[20]
*229 io_wbs_datwr[21]
*230 io_wbs_datwr[22]
*231 io_wbs_datwr[23]
*232 io_wbs_datwr[24]
*233 io_wbs_datwr[25]
*234 io_wbs_datwr[26]
*235 io_wbs_datwr[27]
*236 io_wbs_datwr[28]
*237 io_wbs_datwr[29]
*238 io_wbs_datwr[2]
*239 io_wbs_datwr[30]
*240 io_wbs_datwr[31]
*241 io_wbs_datwr[3]
*242 io_wbs_datwr[4]
*243 io_wbs_datwr[5]
*244 io_wbs_datwr[6]
*245 io_wbs_datwr[7]
*246 io_wbs_datwr[8]
*247 io_wbs_datwr[9]
*248 io_wbs_rst
*249 io_wbs_sel[0]
*250 io_wbs_sel[1]
*251 io_wbs_sel[2]
*252 io_wbs_sel[3]
*253 io_wbs_stb
*254 io_wbs_we
*257 web_mem0
*258 web_mem1
*259 wmask_mem0[0]
*260 wmask_mem0[1]
*261 wmask_mem0[2]
*262 wmask_mem0[3]
*263 wmask_mem1[0]
*264 wmask_mem1[1]
*265 wmask_mem1[2]
*266 wmask_mem1[3]
*267 _000_
*268 _001_
*269 _002_
*270 _003_
*271 _004_
*272 _005_
*273 _006_
*274 _007_
*275 _008_
*276 _009_
*277 _010_
*278 _011_
*279 _012_
*280 _013_
*281 _014_
*282 _015_
*283 _016_
*284 _017_
*285 _018_
*286 _019_
*287 _020_
*288 _021_
*289 _022_
*290 _023_
*291 _024_
*292 _025_
*293 _026_
*294 _027_
*295 _028_
*296 _029_
*297 _030_
*298 _031_
*299 _032_
*300 _033_
*301 _034_
*302 _035_
*303 _036_
*304 _037_
*305 _038_
*306 _039_
*307 _040_
*308 _041_
*309 _042_
*310 _043_
*311 _044_
*312 _045_
*313 _046_
*314 _047_
*315 _048_
*316 _049_
*317 _050_
*318 _051_
*319 _052_
*320 _053_
*321 _054_
*322 _055_
*323 _056_
*324 _057_
*325 _058_
*326 _059_
*327 _060_
*328 _061_
*329 _062_
*330 _063_
*331 _064_
*332 _065_
*333 _066_
*334 _067_
*335 _068_
*336 _069_
*337 _070_
*338 _071_
*339 _072_
*340 _073_
*341 _074_
*342 _075_
*343 _076_
*344 _077_
*345 _078_
*346 _079_
*347 _080_
*348 _081_
*349 _082_
*350 _083_
*351 _084_
*352 _085_
*353 _086_
*354 _087_
*355 _088_
*356 _089_
*357 _090_
*358 _091_
*359 _092_
*360 _093_
*361 _094_
*362 _095_
*363 _096_
*364 _097_
*365 _098_
*366 _099_
*367 _100_
*368 _101_
*369 _102_
*370 _103_
*371 _104_
*372 _105_
*373 _106_
*374 _107_
*375 _108_
*376 _109_
*377 _110_
*378 _111_
*379 _112_
*380 _113_
*381 _114_
*382 _115_
*383 _116_
*384 _117_
*385 _118_
*386 _119_
*387 _120_
*388 _121_
*389 _122_
*390 _123_
*391 _124_
*392 _125_
*393 _126_
*394 _127_
*395 _128_
*396 _129_
*397 _130_
*398 _131_
*399 _132_
*400 _133_
*401 _134_
*402 _135_
*403 _136_
*404 _137_
*405 _138_
*406 _139_
*407 _140_
*408 _141_
*409 _142_
*410 _143_
*411 _144_
*412 _145_
*413 clknet_0_io_wbs_clk
*414 clknet_2_0__leaf_io_wbs_clk
*415 clknet_2_1__leaf_io_wbs_clk
*416 clknet_2_2__leaf_io_wbs_clk
*417 clknet_2_3__leaf_io_wbs_clk
*418 net1
*419 net10
*420 net100
*421 net101
*422 net102
*423 net103
*424 net104
*425 net105
*426 net106
*427 net107
*428 net108
*429 net109
*430 net11
*431 net110
*432 net111
*433 net112
*434 net113
*435 net114
*436 net115
*437 net116
*438 net117
*439 net118
*440 net119
*441 net12
*442 net120
*443 net121
*444 net122
*445 net123
*446 net124
*447 net125
*448 net126
*449 net127
*450 net128
*451 net129
*452 net13
*453 net130
*454 net131
*455 net132
*456 net133
*457 net134
*458 net135
*459 net136
*460 net137
*461 net138
*462 net139
*463 net14
*464 net140
*465 net141
*466 net142
*467 net143
*468 net144
*469 net145
*470 net146
*471 net147
*472 net148
*473 net149
*474 net15
*475 net150
*476 net151
*477 net152
*478 net153
*479 net154
*480 net155
*481 net156
*482 net157
*483 net158
*484 net159
*485 net16
*486 net160
*487 net161
*488 net162
*489 net163
*490 net164
*491 net165
*492 net166
*493 net167
*494 net168
*495 net169
*496 net17
*497 net170
*498 net171
*499 net172
*500 net173
*501 net174
*502 net175
*503 net176
*504 net177
*505 net178
*506 net179
*507 net18
*508 net180
*509 net181
*510 net182
*511 net183
*512 net184
*513 net185
*514 net186
*515 net187
*516 net188
*517 net189
*518 net19
*519 net190
*520 net191
*521 net192
*522 net193
*523 net194
*524 net195
*525 net196
*526 net197
*527 net198
*528 net199
*529 net2
*530 net20
*531 net200
*532 net201
*533 net202
*534 net203
*535 net204
*536 net205
*537 net206
*538 net207
*539 net208
*540 net209
*541 net21
*542 net210
*543 net211
*544 net212
*545 net213
*546 net214
*547 net215
*548 net216
*549 net217
*550 net218
*551 net219
*552 net22
*553 net220
*554 net221
*555 net222
*556 net223
*557 net224
*558 net225
*559 net226
*560 net227
*561 net228
*562 net229
*563 net23
*564 net230
*565 net231
*566 net232
*567 net233
*568 net234
*569 net235
*570 net236
*571 net237
*572 net238
*573 net239
*574 net24
*575 net25
*576 net26
*577 net27
*578 net28
*579 net29
*580 net3
*581 net30
*582 net31
*583 net32
*584 net33
*585 net34
*586 net35
*587 net36
*588 net37
*589 net38
*590 net39
*591 net4
*592 net40
*593 net41
*594 net42
*595 net43
*596 net44
*597 net45
*598 net46
*599 net47
*600 net48
*601 net49
*602 net5
*603 net50
*604 net51
*605 net52
*606 net53
*607 net54
*608 net55
*609 net56
*610 net57
*611 net58
*612 net59
*613 net6
*614 net60
*615 net61
*616 net62
*617 net63
*618 net64
*619 net65
*620 net66
*621 net67
*622 net68
*623 net69
*624 net7
*625 net70
*626 net71
*627 net72
*628 net73
*629 net74
*630 net75
*631 net76
*632 net77
*633 net78
*634 net79
*635 net8
*636 net80
*637 net81
*638 net82
*639 net83
*640 net84
*641 net85
*642 net86
*643 net87
*644 net88
*645 net89
*646 net9
*647 net90
*648 net91
*649 net92
*650 net93
*651 net94
*652 net95
*653 net96
*654 net97
*655 net98
*656 net99
*657 operation
*658 web_mem
*659 ANTENNA__146__A
*660 ANTENNA__147__A1
*661 ANTENNA__147__S
*662 ANTENNA__148__A
*663 ANTENNA__149__A0
*664 ANTENNA__149__A1
*665 ANTENNA__149__S
*666 ANTENNA__151__A1
*667 ANTENNA__151__S
*668 ANTENNA__152__A0
*669 ANTENNA__152__A1
*670 ANTENNA__152__S
*671 ANTENNA__154__A1
*672 ANTENNA__154__S
*673 ANTENNA__155__A0
*674 ANTENNA__155__A1
*675 ANTENNA__155__S
*676 ANTENNA__157__A1
*677 ANTENNA__157__S
*678 ANTENNA__158__A0
*679 ANTENNA__158__A1
*680 ANTENNA__158__S
*681 ANTENNA__160__A1
*682 ANTENNA__160__S
*683 ANTENNA__161__A0
*684 ANTENNA__161__A1
*685 ANTENNA__161__S
*686 ANTENNA__163__A1
*687 ANTENNA__163__S
*688 ANTENNA__164__A0
*689 ANTENNA__164__A1
*690 ANTENNA__164__S
*691 ANTENNA__166__A1
*692 ANTENNA__166__S
*693 ANTENNA__167__A0
*694 ANTENNA__167__A1
*695 ANTENNA__167__S
*696 ANTENNA__169__A1
*697 ANTENNA__169__S
*698 ANTENNA__170__A0
*699 ANTENNA__170__A1
*700 ANTENNA__170__S
*701 ANTENNA__172__A
*702 ANTENNA__173__A1
*703 ANTENNA__174__A0
*704 ANTENNA__174__A1
*705 ANTENNA__174__S
*706 ANTENNA__176__A1
*707 ANTENNA__177__A0
*708 ANTENNA__177__A1
*709 ANTENNA__177__S
*710 ANTENNA__179__A1
*711 ANTENNA__180__A
*712 ANTENNA__181__A0
*713 ANTENNA__181__A1
*714 ANTENNA__183__A1
*715 ANTENNA__184__A0
*716 ANTENNA__184__A1
*717 ANTENNA__186__A1
*718 ANTENNA__187__A0
*719 ANTENNA__187__A1
*720 ANTENNA__189__A1
*721 ANTENNA__190__A0
*722 ANTENNA__190__A1
*723 ANTENNA__192__A1
*724 ANTENNA__193__A0
*725 ANTENNA__193__A1
*726 ANTENNA__195__A1
*727 ANTENNA__196__A0
*728 ANTENNA__196__A1
*729 ANTENNA__198__A0
*730 ANTENNA__198__A1
*731 ANTENNA__199__A1
*732 ANTENNA__201__A0
*733 ANTENNA__201__A1
*734 ANTENNA__202__A1
*735 ANTENNA__204__A
*736 ANTENNA__205__A1
*737 ANTENNA__205__S
*738 ANTENNA__206__A0
*739 ANTENNA__206__A1
*740 ANTENNA__208__A1
*741 ANTENNA__208__S
*742 ANTENNA__209__A1
*743 ANTENNA__211__A1
*744 ANTENNA__211__S
*745 ANTENNA__212__A
*746 ANTENNA__213__A0
*747 ANTENNA__213__A1
*748 ANTENNA__213__S
*749 ANTENNA__215__A1
*750 ANTENNA__215__S
*751 ANTENNA__216__A1
*752 ANTENNA__216__S
*753 ANTENNA__218__A1
*754 ANTENNA__218__S
*755 ANTENNA__219__A1
*756 ANTENNA__219__S
*757 ANTENNA__221__A1
*758 ANTENNA__221__S
*759 ANTENNA__222__A1
*760 ANTENNA__222__S
*761 ANTENNA__224__A1
*762 ANTENNA__224__S
*763 ANTENNA__225__A1
*764 ANTENNA__225__S
*765 ANTENNA__227__A1
*766 ANTENNA__227__S
*767 ANTENNA__228__A1
*768 ANTENNA__228__S
*769 ANTENNA__230__A1
*770 ANTENNA__230__S
*771 ANTENNA__231__A1
*772 ANTENNA__231__S
*773 ANTENNA__233__A1
*774 ANTENNA__233__S
*775 ANTENNA__234__A1
*776 ANTENNA__234__S
*777 ANTENNA__236__A1
*778 ANTENNA__236__S
*779 ANTENNA__237__A1
*780 ANTENNA__237__S
*781 ANTENNA__239__A1
*782 ANTENNA__239__S
*783 ANTENNA__240__A1
*784 ANTENNA__240__S
*785 ANTENNA__242__A1
*786 ANTENNA__242__S
*787 ANTENNA__243__A1
*788 ANTENNA__243__S
*789 ANTENNA__245__A0
*790 ANTENNA__245__A1
*791 ANTENNA__245__S
*792 ANTENNA__246__A1
*793 ANTENNA__246__S
*794 ANTENNA__248__A_N
*795 ANTENNA__251__A
*796 ANTENNA__251__B_N
*797 ANTENNA__253__A
*798 ANTENNA__253__B
*799 ANTENNA__256__A
*800 ANTENNA__257__A
*801 ANTENNA__258__A
*802 ANTENNA__259__A
*803 ANTENNA__260__A
*804 ANTENNA__261__A
*805 ANTENNA__262__A
*806 ANTENNA__263__A
*807 ANTENNA__264__A
*808 ANTENNA__265__A
*809 ANTENNA__266__A
*810 ANTENNA__267__A
*811 ANTENNA__278__A
*812 ANTENNA__279__A
*813 ANTENNA__280__A
*814 ANTENNA__281__A
*815 ANTENNA__282__A
*816 ANTENNA__283__A
*817 ANTENNA__284__A
*818 ANTENNA__285__A
*819 ANTENNA__286__A
*820 ANTENNA__287__A
*821 ANTENNA__288__A
*822 ANTENNA__289__A
*823 ANTENNA__290__A
*824 ANTENNA__291__A
*825 ANTENNA__292__A
*826 ANTENNA__293__A
*827 ANTENNA__294__CLK
*828 ANTENNA__295__CLK
*829 ANTENNA__296__CLK
*830 ANTENNA__297__CLK
*831 ANTENNA__298__CLK
*832 ANTENNA__299__CLK
*833 ANTENNA__300__CLK
*834 ANTENNA__301__CLK
*835 ANTENNA__302__CLK
*836 ANTENNA__303__CLK
*837 ANTENNA__304__CLK
*838 ANTENNA__305__CLK
*839 ANTENNA__306__CLK
*840 ANTENNA__307__CLK
*841 ANTENNA__308__CLK
*842 ANTENNA__309__CLK
*843 ANTENNA__310__CLK
*844 ANTENNA__311__CLK
*845 ANTENNA__312__CLK
*846 ANTENNA__313__CLK
*847 ANTENNA__314__CLK
*848 ANTENNA__315__CLK
*849 ANTENNA__316__CLK
*850 ANTENNA__317__CLK
*851 ANTENNA__318__CLK
*852 ANTENNA__319__CLK
*853 ANTENNA__320__CLK
*854 ANTENNA__321__CLK
*855 ANTENNA__322__CLK
*856 ANTENNA__323__CLK
*857 ANTENNA__324__CLK
*858 ANTENNA__325__CLK
*859 ANTENNA__326__CLK
*860 ANTENNA__326__D
*861 ANTENNA__327__CLK
*862 ANTENNA__327__D
*863 ANTENNA__328__CLK
*864 ANTENNA__331__A
*865 ANTENNA__332__A
*866 ANTENNA__333__A
*867 ANTENNA__334__A
*868 ANTENNA__335__A
*869 ANTENNA__336__A
*870 ANTENNA__337__A
*871 ANTENNA__338__A
*872 ANTENNA__339__A
*873 ANTENNA__340__A
*874 ANTENNA__341__A
*875 ANTENNA__342__A
*876 ANTENNA__343__A
*877 ANTENNA__344__A
*878 ANTENNA__345__A
*879 ANTENNA__346__A
*880 ANTENNA__347__A
*881 ANTENNA__348__A
*882 ANTENNA__349__A
*883 ANTENNA__350__A
*884 ANTENNA__351__A
*885 ANTENNA__352__A
*886 ANTENNA__353__A
*887 ANTENNA__354__A
*888 ANTENNA__355__A
*889 ANTENNA__356__A
*890 ANTENNA__357__A
*891 ANTENNA__358__A
*892 ANTENNA__359__A
*893 ANTENNA__360__A
*894 ANTENNA__361__A
*895 ANTENNA__362__A
*896 ANTENNA__363__A
*897 ANTENNA__364__A
*898 ANTENNA__365__A
*899 ANTENNA__366__A
*900 ANTENNA__367__A
*901 ANTENNA__368__A
*902 ANTENNA__369__A
*903 ANTENNA__370__A
*904 ANTENNA__371__A
*905 ANTENNA__372__A
*906 ANTENNA__373__A
*907 ANTENNA__374__A
*908 ANTENNA__375__A
*909 ANTENNA__376__A
*910 ANTENNA__377__A
*911 ANTENNA__378__A
*912 ANTENNA__379__A
*913 ANTENNA__380__A
*914 ANTENNA__381__A
*915 ANTENNA__382__A
*916 ANTENNA__383__A
*917 ANTENNA__384__A
*918 ANTENNA__385__A
*919 ANTENNA__386__A
*920 ANTENNA__387__A
*921 ANTENNA__388__A
*922 ANTENNA__389__A
*923 ANTENNA__390__A
*924 ANTENNA__391__A
*925 ANTENNA__392__A
*926 ANTENNA__393__A
*927 ANTENNA__394__A
*928 ANTENNA__395__A
*929 ANTENNA__396__A
*930 ANTENNA__397__A
*931 ANTENNA__398__A
*932 ANTENNA__399__A
*933 ANTENNA__400__A
*934 ANTENNA__401__A
*935 ANTENNA__402__A
*936 ANTENNA__403__A
*937 ANTENNA__404__A
*938 ANTENNA__405__A
*939 ANTENNA__406__A
*940 ANTENNA__407__A
*941 ANTENNA__408__A
*942 ANTENNA__409__A
*943 ANTENNA__410__A
*944 ANTENNA__411__A
*945 ANTENNA__412__A
*946 ANTENNA__413__A
*947 ANTENNA__414__A
*948 ANTENNA__415__A
*949 ANTENNA__416__A
*950 ANTENNA__417__A
*951 ANTENNA__418__A
*952 ANTENNA__419__A
*953 ANTENNA__420__A
*954 ANTENNA_clkbuf_0_io_wbs_clk_A
*955 ANTENNA_input100_A
*956 ANTENNA_input101_A
*957 ANTENNA_input102_A
*958 ANTENNA_input103_A
*959 ANTENNA_input104_A
*960 ANTENNA_input105_A
*961 ANTENNA_input106_A
*962 ANTENNA_input107_A
*963 ANTENNA_input108_A
*964 ANTENNA_input109_A
*965 ANTENNA_input10_A
*966 ANTENNA_input110_A
*967 ANTENNA_input111_A
*968 ANTENNA_input112_A
*969 ANTENNA_input113_A
*970 ANTENNA_input114_A
*971 ANTENNA_input11_A
*972 ANTENNA_input12_A
*973 ANTENNA_input13_A
*974 ANTENNA_input14_A
*975 ANTENNA_input15_A
*976 ANTENNA_input16_A
*977 ANTENNA_input17_A
*978 ANTENNA_input18_A
*979 ANTENNA_input19_A
*980 ANTENNA_input1_A
*981 ANTENNA_input20_A
*982 ANTENNA_input21_A
*983 ANTENNA_input22_A
*984 ANTENNA_input23_A
*985 ANTENNA_input24_A
*986 ANTENNA_input25_A
*987 ANTENNA_input26_A
*988 ANTENNA_input27_A
*989 ANTENNA_input28_A
*990 ANTENNA_input29_A
*991 ANTENNA_input2_A
*992 ANTENNA_input30_A
*993 ANTENNA_input31_A
*994 ANTENNA_input32_A
*995 ANTENNA_input33_A
*996 ANTENNA_input34_A
*997 ANTENNA_input35_A
*998 ANTENNA_input36_A
*999 ANTENNA_input37_A
*1000 ANTENNA_input38_A
*1001 ANTENNA_input39_A
*1002 ANTENNA_input3_A
*1003 ANTENNA_input40_A
*1004 ANTENNA_input41_A
*1005 ANTENNA_input42_A
*1006 ANTENNA_input43_A
*1007 ANTENNA_input44_A
*1008 ANTENNA_input45_A
*1009 ANTENNA_input46_A
*1010 ANTENNA_input47_A
*1011 ANTENNA_input48_A
*1012 ANTENNA_input49_A
*1013 ANTENNA_input4_A
*1014 ANTENNA_input50_A
*1015 ANTENNA_input51_A
*1016 ANTENNA_input52_A
*1017 ANTENNA_input53_A
*1018 ANTENNA_input54_A
*1019 ANTENNA_input55_A
*1020 ANTENNA_input56_A
*1021 ANTENNA_input57_A
*1022 ANTENNA_input58_A
*1023 ANTENNA_input59_A
*1024 ANTENNA_input5_A
*1025 ANTENNA_input60_A
*1026 ANTENNA_input61_A
*1027 ANTENNA_input62_A
*1028 ANTENNA_input63_A
*1029 ANTENNA_input64_A
*1030 ANTENNA_input65_A
*1031 ANTENNA_input66_A
*1032 ANTENNA_input67_A
*1033 ANTENNA_input68_A
*1034 ANTENNA_input69_A
*1035 ANTENNA_input6_A
*1036 ANTENNA_input70_A
*1037 ANTENNA_input71_A
*1038 ANTENNA_input72_A
*1039 ANTENNA_input73_A
*1040 ANTENNA_input74_A
*1041 ANTENNA_input75_A
*1042 ANTENNA_input76_A
*1043 ANTENNA_input77_A
*1044 ANTENNA_input78_A
*1045 ANTENNA_input79_A
*1046 ANTENNA_input7_A
*1047 ANTENNA_input80_A
*1048 ANTENNA_input81_A
*1049 ANTENNA_input82_A
*1050 ANTENNA_input83_A
*1051 ANTENNA_input84_A
*1052 ANTENNA_input85_A
*1053 ANTENNA_input86_A
*1054 ANTENNA_input87_A
*1055 ANTENNA_input88_A
*1056 ANTENNA_input89_A
*1057 ANTENNA_input8_A
*1058 ANTENNA_input90_A
*1059 ANTENNA_input91_A
*1060 ANTENNA_input92_A
*1061 ANTENNA_input93_A
*1062 ANTENNA_input94_A
*1063 ANTENNA_input95_A
*1064 ANTENNA_input96_A
*1065 ANTENNA_input97_A
*1066 ANTENNA_input98_A
*1067 ANTENNA_input99_A
*1068 ANTENNA_input9_A
*1069 ANTENNA_output116_A
*1070 ANTENNA_output117_A
*1071 ANTENNA_output118_A
*1072 ANTENNA_output119_A
*1073 ANTENNA_output120_A
*1074 ANTENNA_output121_A
*1075 ANTENNA_output122_A
*1076 ANTENNA_output123_A
*1077 ANTENNA_output124_A
*1078 ANTENNA_output125_A
*1079 ANTENNA_output126_A
*1080 ANTENNA_output127_A
*1081 ANTENNA_output128_A
*1082 ANTENNA_output129_A
*1083 ANTENNA_output130_A
*1084 ANTENNA_output131_A
*1085 ANTENNA_output132_A
*1086 ANTENNA_output134_A
*1087 ANTENNA_output135_A
*1088 ANTENNA_output136_A
*1089 ANTENNA_output137_A
*1090 ANTENNA_output138_A
*1091 ANTENNA_output139_A
*1092 ANTENNA_output140_A
*1093 ANTENNA_output141_A
*1094 ANTENNA_output142_A
*1095 ANTENNA_output143_A
*1096 ANTENNA_output145_A
*1097 ANTENNA_output146_A
*1098 ANTENNA_output147_A
*1099 ANTENNA_output148_A
*1100 ANTENNA_output149_A
*1101 ANTENNA_output150_A
*1102 ANTENNA_output151_A
*1103 ANTENNA_output152_A
*1104 ANTENNA_output153_A
*1105 ANTENNA_output154_A
*1106 ANTENNA_output156_A
*1107 ANTENNA_output157_A
*1108 ANTENNA_output163_A
*1109 ANTENNA_output164_A
*1110 ANTENNA_output165_A
*1111 ANTENNA_output166_A
*1112 ANTENNA_output167_A
*1113 ANTENNA_output168_A
*1114 ANTENNA_output169_A
*1115 ANTENNA_output170_A
*1116 ANTENNA_output171_A
*1117 ANTENNA_output172_A
*1118 ANTENNA_output173_A
*1119 ANTENNA_output174_A
*1120 ANTENNA_output175_A
*1121 ANTENNA_output176_A
*1122 ANTENNA_output177_A
*1123 ANTENNA_output178_A
*1124 ANTENNA_output179_A
*1125 ANTENNA_output187_A
*1126 ANTENNA_output190_A
*1127 ANTENNA_output191_A
*1128 ANTENNA_output192_A
*1129 ANTENNA_output193_A
*1130 ANTENNA_output194_A
*1131 ANTENNA_output195_A
*1132 ANTENNA_output196_A
*1133 ANTENNA_output200_A
*1134 ANTENNA_output202_A
*1135 ANTENNA_output205_A
*1136 ANTENNA_output206_A
*1137 ANTENNA_output207_A
*1138 ANTENNA_output208_A
*1139 ANTENNA_output210_A
*1140 ANTENNA_output211_A
*1141 ANTENNA_output212_A
*1142 ANTENNA_output213_A
*1143 ANTENNA_output214_A
*1144 ANTENNA_output215_A
*1145 ANTENNA_output216_A
*1146 ANTENNA_output217_A
*1147 ANTENNA_output218_A
*1148 ANTENNA_output219_A
*1149 ANTENNA_output221_A
*1150 ANTENNA_output222_A
*1151 ANTENNA_output230_A
*1152 ANTENNA_output236_A
*1153 ANTENNA_output237_A
*1154 ANTENNA_output238_A
*1155 ANTENNA_output239_A
*1156 FILLER_0_100
*1157 FILLER_0_1003
*1158 FILLER_0_1006
*1159 FILLER_0_1009
*1160 FILLER_0_1015
*1161 FILLER_0_1027
*1162 FILLER_0_1031
*1163 FILLER_0_1034
*1164 FILLER_0_1037
*1165 FILLER_0_1043
*1166 FILLER_0_1055
*1167 FILLER_0_1063
*1168 FILLER_0_1065
*1169 FILLER_0_1073
*1170 FILLER_0_1077
*1171 FILLER_0_1085
*1172 FILLER_0_1091
*1173 FILLER_0_1093
*1174 FILLER_0_1100
*1175 FILLER_0_1112
*1176 FILLER_0_1121
*1177 FILLER_0_1125
*1178 FILLER_0_113
*1179 FILLER_0_1130
*1180 FILLER_0_1134
*1181 FILLER_0_1137
*1182 FILLER_0_1145
*1183 FILLER_0_1149
*1184 FILLER_0_1161
*1185 FILLER_0_1169
*1186 FILLER_0_1174
*1187 FILLER_0_1177
*1188 FILLER_0_1183
*1189 FILLER_0_1191
*1190 FILLER_0_1203
*1191 FILLER_0_1205
*1192 FILLER_0_1209
*1193 FILLER_0_1212
*1194 FILLER_0_1220
*1195 FILLER_0_1230
*1196 FILLER_0_1233
*1197 FILLER_0_1239
*1198 FILLER_0_125
*1199 FILLER_0_1251
*1200 FILLER_0_1255
*1201 FILLER_0_1258
*1202 FILLER_0_1261
*1203 FILLER_0_1267
*1204 FILLER_0_1275
*1205 FILLER_0_1280
*1206 FILLER_0_1289
*1207 FILLER_0_1297
*1208 FILLER_0_1302
*1209 FILLER_0_1310
*1210 FILLER_0_1317
*1211 FILLER_0_1325
*1212 FILLER_0_133
*1213 FILLER_0_1337
*1214 FILLER_0_1343
*1215 FILLER_0_1345
*1216 FILLER_0_1355
*1217 FILLER_0_1359
*1218 FILLER_0_1362
*1219 FILLER_0_1370
*1220 FILLER_0_1373
*1221 FILLER_0_138
*1222 FILLER_0_1385
*1223 FILLER_0_1393
*1224 FILLER_0_1398
*1225 FILLER_0_1401
*1226 FILLER_0_1407
*1227 FILLER_0_141
*1228 FILLER_0_1415
*1229 FILLER_0_1427
*1230 FILLER_0_1429
*1231 FILLER_0_1437
*1232 FILLER_0_1445
*1233 FILLER_0_1451
*1234 FILLER_0_1454
*1235 FILLER_0_1457
*1236 FILLER_0_1463
*1237 FILLER_0_1475
*1238 FILLER_0_1479
*1239 FILLER_0_1482
*1240 FILLER_0_1485
*1241 FILLER_0_149
*1242 FILLER_0_1491
*1243 FILLER_0_1497
*1244 FILLER_0_15
*1245 FILLER_0_1505
*1246 FILLER_0_1511
*1247 FILLER_0_1513
*1248 FILLER_0_1527
*1249 FILLER_0_1535
*1250 FILLER_0_1539
*1251 FILLER_0_1541
*1252 FILLER_0_1545
*1253 FILLER_0_1552
*1254 FILLER_0_1564
*1255 FILLER_0_1569
*1256 FILLER_0_157
*1257 FILLER_0_1575
*1258 FILLER_0_1580
*1259 FILLER_0_1594
*1260 FILLER_0_1597
*1261 FILLER_0_1601
*1262 FILLER_0_165
*1263 FILLER_0_169
*1264 FILLER_0_185
*1265 FILLER_0_191
*1266 FILLER_0_194
*1267 FILLER_0_197
*1268 FILLER_0_20
*1269 FILLER_0_203
*1270 FILLER_0_209
*1271 FILLER_0_214
*1272 FILLER_0_222
*1273 FILLER_0_225
*1274 FILLER_0_247
*1275 FILLER_0_251
*1276 FILLER_0_253
*1277 FILLER_0_26
*1278 FILLER_0_260
*1279 FILLER_0_270
*1280 FILLER_0_278
*1281 FILLER_0_281
*1282 FILLER_0_29
*1283 FILLER_0_3
*1284 FILLER_0_303
*1285 FILLER_0_307
*1286 FILLER_0_309
*1287 FILLER_0_33
*1288 FILLER_0_334
*1289 FILLER_0_337
*1290 FILLER_0_359
*1291 FILLER_0_363
*1292 FILLER_0_365
*1293 FILLER_0_387
*1294 FILLER_0_391
*1295 FILLER_0_393
*1296 FILLER_0_415
*1297 FILLER_0_419
*1298 FILLER_0_421
*1299 FILLER_0_432
*1300 FILLER_0_438
*1301 FILLER_0_446
*1302 FILLER_0_449
*1303 FILLER_0_471
*1304 FILLER_0_475
*1305 FILLER_0_477
*1306 FILLER_0_481
*1307 FILLER_0_502
*1308 FILLER_0_505
*1309 FILLER_0_527
*1310 FILLER_0_531
*1311 FILLER_0_533
*1312 FILLER_0_537
*1313 FILLER_0_54
*1314 FILLER_0_558
*1315 FILLER_0_561
*1316 FILLER_0_567
*1317 FILLER_0_57
*1318 FILLER_0_572
*1319 FILLER_0_582
*1320 FILLER_0_589
*1321 FILLER_0_614
*1322 FILLER_0_617
*1323 FILLER_0_639
*1324 FILLER_0_643
*1325 FILLER_0_645
*1326 FILLER_0_649
*1327 FILLER_0_670
*1328 FILLER_0_673
*1329 FILLER_0_695
*1330 FILLER_0_699
*1331 FILLER_0_701
*1332 FILLER_0_724
*1333 FILLER_0_729
*1334 FILLER_0_735
*1335 FILLER_0_740
*1336 FILLER_0_747
*1337 FILLER_0_754
*1338 FILLER_0_757
*1339 FILLER_0_780
*1340 FILLER_0_785
*1341 FILLER_0_810
*1342 FILLER_0_813
*1343 FILLER_0_82
*1344 FILLER_0_838
*1345 FILLER_0_841
*1346 FILLER_0_85
*1347 FILLER_0_866
*1348 FILLER_0_869
*1349 FILLER_0_892
*1350 FILLER_0_897
*1351 FILLER_0_905
*1352 FILLER_0_912
*1353 FILLER_0_920
*1354 FILLER_0_925
*1355 FILLER_0_929
*1356 FILLER_0_935
*1357 FILLER_0_939
*1358 FILLER_0_94
*1359 FILLER_0_942
*1360 FILLER_0_950
*1361 FILLER_0_953
*1362 FILLER_0_957
*1363 FILLER_0_965
*1364 FILLER_0_977
*1365 FILLER_0_981
*1366 FILLER_0_987
*1367 FILLER_0_995
*1368 FILLER_10_1005
*1369 FILLER_10_1017
*1370 FILLER_10_1029
*1371 FILLER_10_1035
*1372 FILLER_10_1037
*1373 FILLER_10_1049
*1374 FILLER_10_1061
*1375 FILLER_10_1073
*1376 FILLER_10_1085
*1377 FILLER_10_109
*1378 FILLER_10_1091
*1379 FILLER_10_1093
*1380 FILLER_10_1105
*1381 FILLER_10_1117
*1382 FILLER_10_1129
*1383 FILLER_10_1141
*1384 FILLER_10_1147
*1385 FILLER_10_1149
*1386 FILLER_10_1161
*1387 FILLER_10_1173
*1388 FILLER_10_1185
*1389 FILLER_10_1197
*1390 FILLER_10_1203
*1391 FILLER_10_1205
*1392 FILLER_10_121
*1393 FILLER_10_1217
*1394 FILLER_10_1229
*1395 FILLER_10_1241
*1396 FILLER_10_1253
*1397 FILLER_10_1259
*1398 FILLER_10_1261
*1399 FILLER_10_1273
*1400 FILLER_10_1285
*1401 FILLER_10_1297
*1402 FILLER_10_1309
*1403 FILLER_10_1315
*1404 FILLER_10_1317
*1405 FILLER_10_1329
*1406 FILLER_10_133
*1407 FILLER_10_1341
*1408 FILLER_10_1353
*1409 FILLER_10_1365
*1410 FILLER_10_1371
*1411 FILLER_10_1373
*1412 FILLER_10_1385
*1413 FILLER_10_139
*1414 FILLER_10_1397
*1415 FILLER_10_1409
*1416 FILLER_10_141
*1417 FILLER_10_1421
*1418 FILLER_10_1427
*1419 FILLER_10_1429
*1420 FILLER_10_1441
*1421 FILLER_10_1453
*1422 FILLER_10_1465
*1423 FILLER_10_1477
*1424 FILLER_10_1483
*1425 FILLER_10_1485
*1426 FILLER_10_1497
*1427 FILLER_10_15
*1428 FILLER_10_1509
*1429 FILLER_10_1521
*1430 FILLER_10_153
*1431 FILLER_10_1533
*1432 FILLER_10_1539
*1433 FILLER_10_1541
*1434 FILLER_10_1553
*1435 FILLER_10_1565
*1436 FILLER_10_1577
*1437 FILLER_10_1589
*1438 FILLER_10_1595
*1439 FILLER_10_1597
*1440 FILLER_10_165
*1441 FILLER_10_177
*1442 FILLER_10_189
*1443 FILLER_10_195
*1444 FILLER_10_197
*1445 FILLER_10_209
*1446 FILLER_10_221
*1447 FILLER_10_233
*1448 FILLER_10_245
*1449 FILLER_10_251
*1450 FILLER_10_253
*1451 FILLER_10_265
*1452 FILLER_10_27
*1453 FILLER_10_277
*1454 FILLER_10_289
*1455 FILLER_10_29
*1456 FILLER_10_3
*1457 FILLER_10_301
*1458 FILLER_10_307
*1459 FILLER_10_309
*1460 FILLER_10_321
*1461 FILLER_10_333
*1462 FILLER_10_345
*1463 FILLER_10_357
*1464 FILLER_10_363
*1465 FILLER_10_365
*1466 FILLER_10_377
*1467 FILLER_10_389
*1468 FILLER_10_401
*1469 FILLER_10_41
*1470 FILLER_10_413
*1471 FILLER_10_419
*1472 FILLER_10_421
*1473 FILLER_10_433
*1474 FILLER_10_445
*1475 FILLER_10_457
*1476 FILLER_10_469
*1477 FILLER_10_475
*1478 FILLER_10_477
*1479 FILLER_10_489
*1480 FILLER_10_501
*1481 FILLER_10_513
*1482 FILLER_10_525
*1483 FILLER_10_53
*1484 FILLER_10_531
*1485 FILLER_10_533
*1486 FILLER_10_545
*1487 FILLER_10_557
*1488 FILLER_10_569
*1489 FILLER_10_581
*1490 FILLER_10_587
*1491 FILLER_10_589
*1492 FILLER_10_601
*1493 FILLER_10_613
*1494 FILLER_10_625
*1495 FILLER_10_637
*1496 FILLER_10_643
*1497 FILLER_10_645
*1498 FILLER_10_65
*1499 FILLER_10_657
*1500 FILLER_10_669
*1501 FILLER_10_681
*1502 FILLER_10_693
*1503 FILLER_10_699
*1504 FILLER_10_701
*1505 FILLER_10_713
*1506 FILLER_10_725
*1507 FILLER_10_737
*1508 FILLER_10_749
*1509 FILLER_10_755
*1510 FILLER_10_757
*1511 FILLER_10_769
*1512 FILLER_10_77
*1513 FILLER_10_781
*1514 FILLER_10_793
*1515 FILLER_10_805
*1516 FILLER_10_811
*1517 FILLER_10_813
*1518 FILLER_10_825
*1519 FILLER_10_83
*1520 FILLER_10_837
*1521 FILLER_10_849
*1522 FILLER_10_85
*1523 FILLER_10_861
*1524 FILLER_10_867
*1525 FILLER_10_869
*1526 FILLER_10_881
*1527 FILLER_10_893
*1528 FILLER_10_905
*1529 FILLER_10_917
*1530 FILLER_10_923
*1531 FILLER_10_925
*1532 FILLER_10_937
*1533 FILLER_10_949
*1534 FILLER_10_961
*1535 FILLER_10_97
*1536 FILLER_10_973
*1537 FILLER_10_979
*1538 FILLER_10_981
*1539 FILLER_10_993
*1540 FILLER_11_1001
*1541 FILLER_11_1007
*1542 FILLER_11_1009
*1543 FILLER_11_1021
*1544 FILLER_11_1033
*1545 FILLER_11_1045
*1546 FILLER_11_105
*1547 FILLER_11_1057
*1548 FILLER_11_1063
*1549 FILLER_11_1065
*1550 FILLER_11_1077
*1551 FILLER_11_1089
*1552 FILLER_11_1101
*1553 FILLER_11_111
*1554 FILLER_11_1113
*1555 FILLER_11_1119
*1556 FILLER_11_1121
*1557 FILLER_11_113
*1558 FILLER_11_1133
*1559 FILLER_11_1145
*1560 FILLER_11_1157
*1561 FILLER_11_1169
*1562 FILLER_11_1175
*1563 FILLER_11_1177
*1564 FILLER_11_1189
*1565 FILLER_11_1201
*1566 FILLER_11_1213
*1567 FILLER_11_1225
*1568 FILLER_11_1231
*1569 FILLER_11_1233
*1570 FILLER_11_1245
*1571 FILLER_11_125
*1572 FILLER_11_1257
*1573 FILLER_11_1269
*1574 FILLER_11_1281
*1575 FILLER_11_1287
*1576 FILLER_11_1289
*1577 FILLER_11_1301
*1578 FILLER_11_1313
*1579 FILLER_11_1325
*1580 FILLER_11_1337
*1581 FILLER_11_1343
*1582 FILLER_11_1345
*1583 FILLER_11_1357
*1584 FILLER_11_1369
*1585 FILLER_11_137
*1586 FILLER_11_1381
*1587 FILLER_11_1393
*1588 FILLER_11_1399
*1589 FILLER_11_1401
*1590 FILLER_11_1413
*1591 FILLER_11_1425
*1592 FILLER_11_1437
*1593 FILLER_11_1449
*1594 FILLER_11_1455
*1595 FILLER_11_1457
*1596 FILLER_11_1469
*1597 FILLER_11_1481
*1598 FILLER_11_149
*1599 FILLER_11_1493