*SPEF "ieee 1481-1999"
*DESIGN "wb_mux"
*DATE "11:11:11 Fri 11 11, 1111"
*VENDOR "OpenRCX"
*PROGRAM "Parallel Extraction"
*VERSION "1.0"
*DESIGN_FLOW "NAME_SCOPE LOCAL" "PIN_CAP NONE"
*DIVIDER /
*DELIMITER :
*BUS_DELIMITER []
*T_UNIT 1 NS
*C_UNIT 1 PF
*R_UNIT 1 OHM
*L_UNIT 1 HENRY

*NAME_MAP
*1 io_wbs_ack
*2 io_wbs_ack_0
*3 io_wbs_ack_1
*4 io_wbs_adr[0]
*5 io_wbs_adr[10]
*6 io_wbs_adr[11]
*7 io_wbs_adr[12]
*8 io_wbs_adr[13]
*9 io_wbs_adr[14]
*10 io_wbs_adr[15]
*11 io_wbs_adr[16]
*12 io_wbs_adr[17]
*13 io_wbs_adr[18]
*14 io_wbs_adr[19]
*15 io_wbs_adr[1]
*16 io_wbs_adr[20]
*17 io_wbs_adr[21]
*18 io_wbs_adr[22]
*19 io_wbs_adr[23]
*20 io_wbs_adr[24]
*21 io_wbs_adr[25]
*22 io_wbs_adr[26]
*23 io_wbs_adr[27]
*24 io_wbs_adr[28]
*25 io_wbs_adr[29]
*26 io_wbs_adr[2]
*27 io_wbs_adr[30]
*28 io_wbs_adr[31]
*29 io_wbs_adr[3]
*30 io_wbs_adr[4]
*31 io_wbs_adr[5]
*32 io_wbs_adr[6]
*33 io_wbs_adr[7]
*34 io_wbs_adr[8]
*35 io_wbs_adr[9]
*36 io_wbs_adr_0[0]
*37 io_wbs_adr_0[10]
*38 io_wbs_adr_0[11]
*39 io_wbs_adr_0[12]
*40 io_wbs_adr_0[13]
*41 io_wbs_adr_0[14]
*42 io_wbs_adr_0[15]
*43 io_wbs_adr_0[16]
*44 io_wbs_adr_0[17]
*45 io_wbs_adr_0[18]
*46 io_wbs_adr_0[19]
*47 io_wbs_adr_0[1]
*48 io_wbs_adr_0[20]
*49 io_wbs_adr_0[21]
*50 io_wbs_adr_0[22]
*51 io_wbs_adr_0[23]
*52 io_wbs_adr_0[24]
*53 io_wbs_adr_0[25]
*54 io_wbs_adr_0[26]
*55 io_wbs_adr_0[27]
*56 io_wbs_adr_0[28]
*57 io_wbs_adr_0[29]
*58 io_wbs_adr_0[2]
*59 io_wbs_adr_0[30]
*60 io_wbs_adr_0[31]
*61 io_wbs_adr_0[3]
*62 io_wbs_adr_0[4]
*63 io_wbs_adr_0[5]
*64 io_wbs_adr_0[6]
*65 io_wbs_adr_0[7]
*66 io_wbs_adr_0[8]
*67 io_wbs_adr_0[9]
*68 io_wbs_adr_1[0]
*69 io_wbs_adr_1[10]
*70 io_wbs_adr_1[11]
*71 io_wbs_adr_1[12]
*72 io_wbs_adr_1[13]
*73 io_wbs_adr_1[14]
*74 io_wbs_adr_1[15]
*75 io_wbs_adr_1[16]
*76 io_wbs_adr_1[17]
*77 io_wbs_adr_1[18]
*78 io_wbs_adr_1[19]
*79 io_wbs_adr_1[1]
*80 io_wbs_adr_1[20]
*81 io_wbs_adr_1[21]
*82 io_wbs_adr_1[22]
*83 io_wbs_adr_1[23]
*84 io_wbs_adr_1[24]
*85 io_wbs_adr_1[25]
*86 io_wbs_adr_1[26]
*87 io_wbs_adr_1[27]
*88 io_wbs_adr_1[28]
*89 io_wbs_adr_1[29]
*90 io_wbs_adr_1[2]
*91 io_wbs_adr_1[30]
*92 io_wbs_adr_1[31]
*93 io_wbs_adr_1[3]
*94 io_wbs_adr_1[4]
*95 io_wbs_adr_1[5]
*96 io_wbs_adr_1[6]
*97 io_wbs_adr_1[7]
*98 io_wbs_adr_1[8]
*99 io_wbs_adr_1[9]
*100 io_wbs_cyc
*101 io_wbs_cyc_0
*102 io_wbs_cyc_1
*103 io_wbs_datrd[0]
*104 io_wbs_datrd[10]
*105 io_wbs_datrd[11]
*106 io_wbs_datrd[12]
*107 io_wbs_datrd[13]
*108 io_wbs_datrd[14]
*109 io_wbs_datrd[15]
*110 io_wbs_datrd[16]
*111 io_wbs_datrd[17]
*112 io_wbs_datrd[18]
*113 io_wbs_datrd[19]
*114 io_wbs_datrd[1]
*115 io_wbs_datrd[20]
*116 io_wbs_datrd[21]
*117 io_wbs_datrd[22]
*118 io_wbs_datrd[23]
*119 io_wbs_datrd[24]
*120 io_wbs_datrd[25]
*121 io_wbs_datrd[26]
*122 io_wbs_datrd[27]
*123 io_wbs_datrd[28]
*124 io_wbs_datrd[29]
*125 io_wbs_datrd[2]
*126 io_wbs_datrd[30]
*127 io_wbs_datrd[31]
*128 io_wbs_datrd[3]
*129 io_wbs_datrd[4]
*130 io_wbs_datrd[5]
*131 io_wbs_datrd[6]
*132 io_wbs_datrd[7]
*133 io_wbs_datrd[8]
*134 io_wbs_datrd[9]
*135 io_wbs_datrd_0[0]
*136 io_wbs_datrd_0[10]
*137 io_wbs_datrd_0[11]
*138 io_wbs_datrd_0[12]
*139 io_wbs_datrd_0[13]
*140 io_wbs_datrd_0[14]
*141 io_wbs_datrd_0[15]
*142 io_wbs_datrd_0[16]
*143 io_wbs_datrd_0[17]
*144 io_wbs_datrd_0[18]
*145 io_wbs_datrd_0[19]
*146 io_wbs_datrd_0[1]
*147 io_wbs_datrd_0[20]
*148 io_wbs_datrd_0[21]
*149 io_wbs_datrd_0[22]
*150 io_wbs_datrd_0[23]
*151 io_wbs_datrd_0[24]
*152 io_wbs_datrd_0[25]
*153 io_wbs_datrd_0[26]
*154 io_wbs_datrd_0[27]
*155 io_wbs_datrd_0[28]
*156 io_wbs_datrd_0[29]
*157 io_wbs_datrd_0[2]
*158 io_wbs_datrd_0[30]
*159 io_wbs_datrd_0[31]
*160 io_wbs_datrd_0[3]
*161 io_wbs_datrd_0[4]
*162 io_wbs_datrd_0[5]
*163 io_wbs_datrd_0[6]
*164 io_wbs_datrd_0[7]
*165 io_wbs_datrd_0[8]
*166 io_wbs_datrd_0[9]
*167 io_wbs_datrd_1[0]
*168 io_wbs_datrd_1[10]
*169 io_wbs_datrd_1[11]
*170 io_wbs_datrd_1[12]
*171 io_wbs_datrd_1[13]
*172 io_wbs_datrd_1[14]
*173 io_wbs_datrd_1[15]
*174 io_wbs_datrd_1[16]
*175 io_wbs_datrd_1[17]
*176 io_wbs_datrd_1[18]
*177 io_wbs_datrd_1[19]
*178 io_wbs_datrd_1[1]
*179 io_wbs_datrd_1[20]
*180 io_wbs_datrd_1[21]
*181 io_wbs_datrd_1[22]
*182 io_wbs_datrd_1[23]
*183 io_wbs_datrd_1[24]
*184 io_wbs_datrd_1[25]
*185 io_wbs_datrd_1[26]
*186 io_wbs_datrd_1[27]
*187 io_wbs_datrd_1[28]
*188 io_wbs_datrd_1[29]
*189 io_wbs_datrd_1[2]
*190 io_wbs_datrd_1[30]
*191 io_wbs_datrd_1[31]
*192 io_wbs_datrd_1[3]
*193 io_wbs_datrd_1[4]
*194 io_wbs_datrd_1[5]
*195 io_wbs_datrd_1[6]
*196 io_wbs_datrd_1[7]
*197 io_wbs_datrd_1[8]
*198 io_wbs_datrd_1[9]
*199 io_wbs_datwr[0]
*200 io_wbs_datwr[10]
*201 io_wbs_datwr[11]
*202 io_wbs_datwr[12]
*203 io_wbs_datwr[13]
*204 io_wbs_datwr[14]
*205 io_wbs_datwr[15]
*206 io_wbs_datwr[16]
*207 io_wbs_datwr[17]
*208 io_wbs_datwr[18]
*209 io_wbs_datwr[19]
*210 io_wbs_datwr[1]
*211 io_wbs_datwr[20]
*212 io_wbs_datwr[21]
*213 io_wbs_datwr[22]
*214 io_wbs_datwr[23]
*215 io_wbs_datwr[24]
*216 io_wbs_datwr[25]
*217 io_wbs_datwr[26]
*218 io_wbs_datwr[27]
*219 io_wbs_datwr[28]
*220 io_wbs_datwr[29]
*221 io_wbs_datwr[2]
*222 io_wbs_datwr[30]
*223 io_wbs_datwr[31]
*224 io_wbs_datwr[3]
*225 io_wbs_datwr[4]
*226 io_wbs_datwr[5]
*227 io_wbs_datwr[6]
*228 io_wbs_datwr[7]
*229 io_wbs_datwr[8]
*230 io_wbs_datwr[9]
*231 io_wbs_datwr_0[0]
*232 io_wbs_datwr_0[10]
*233 io_wbs_datwr_0[11]
*234 io_wbs_datwr_0[12]
*235 io_wbs_datwr_0[13]
*236 io_wbs_datwr_0[14]
*237 io_wbs_datwr_0[15]
*238 io_wbs_datwr_0[16]
*239 io_wbs_datwr_0[17]
*240 io_wbs_datwr_0[18]
*241 io_wbs_datwr_0[19]
*242 io_wbs_datwr_0[1]
*243 io_wbs_datwr_0[20]
*244 io_wbs_datwr_0[21]
*245 io_wbs_datwr_0[22]
*246 io_wbs_datwr_0[23]
*247 io_wbs_datwr_0[24]
*248 io_wbs_datwr_0[25]
*249 io_wbs_datwr_0[26]
*250 io_wbs_datwr_0[27]
*251 io_wbs_datwr_0[28]
*252 io_wbs_datwr_0[29]
*253 io_wbs_datwr_0[2]
*254 io_wbs_datwr_0[30]
*255 io_wbs_datwr_0[31]
*256 io_wbs_datwr_0[3]
*257 io_wbs_datwr_0[4]
*258 io_wbs_datwr_0[5]
*259 io_wbs_datwr_0[6]
*260 io_wbs_datwr_0[7]
*261 io_wbs_datwr_0[8]
*262 io_wbs_datwr_0[9]
*263 io_wbs_datwr_1[0]
*264 io_wbs_datwr_1[10]
*265 io_wbs_datwr_1[11]
*266 io_wbs_datwr_1[12]
*267 io_wbs_datwr_1[13]
*268 io_wbs_datwr_1[14]
*269 io_wbs_datwr_1[15]
*270 io_wbs_datwr_1[16]
*271 io_wbs_datwr_1[17]
*272 io_wbs_datwr_1[18]
*273 io_wbs_datwr_1[19]
*274 io_wbs_datwr_1[1]
*275 io_wbs_datwr_1[20]
*276 io_wbs_datwr_1[21]
*277 io_wbs_datwr_1[22]
*278 io_wbs_datwr_1[23]
*279 io_wbs_datwr_1[24]
*280 io_wbs_datwr_1[25]
*281 io_wbs_datwr_1[26]
*282 io_wbs_datwr_1[27]
*283 io_wbs_datwr_1[28]
*284 io_wbs_datwr_1[29]
*285 io_wbs_datwr_1[2]
*286 io_wbs_datwr_1[30]
*287 io_wbs_datwr_1[31]
*288 io_wbs_datwr_1[3]
*289 io_wbs_datwr_1[4]
*290 io_wbs_datwr_1[5]
*291 io_wbs_datwr_1[6]
*292 io_wbs_datwr_1[7]
*293 io_wbs_datwr_1[8]
*294 io_wbs_datwr_1[9]
*295 io_wbs_sel[0]
*296 io_wbs_sel[1]
*297 io_wbs_sel[2]
*298 io_wbs_sel[3]
*299 io_wbs_sel_0[0]
*300 io_wbs_sel_0[1]
*301 io_wbs_sel_0[2]
*302 io_wbs_sel_0[3]
*303 io_wbs_sel_1[0]
*304 io_wbs_sel_1[1]
*305 io_wbs_sel_1[2]
*306 io_wbs_sel_1[3]
*307 io_wbs_stb
*308 io_wbs_stb_0
*309 io_wbs_stb_1
*310 io_wbs_we
*311 io_wbs_we_0
*312 io_wbs_we_1
*315 _000_
*316 _001_
*317 _002_
*318 _003_
*319 _004_
*320 _005_
*321 _006_
*322 _007_
*323 _008_
*324 _009_
*325 _010_
*326 _011_
*327 _012_
*328 _013_
*329 _014_
*330 _015_
*331 _016_
*332 _017_
*333 _018_
*334 _019_
*335 _020_
*336 net1
*337 net10
*338 net100
*339 net101
*340 net102
*341 net103
*342 net104
*343 net105
*344 net106
*345 net107
*346 net108
*347 net109
*348 net11
*349 net110
*350 net111
*351 net112
*352 net113
*353 net114
*354 net115
*355 net116
*356 net117
*357 net118
*358 net119
*359 net12
*360 net120
*361 net121
*362 net122
*363 net123
*364 net124
*365 net125
*366 net126
*367 net127
*368 net128
*369 net129
*370 net13
*371 net130
*372 net131
*373 net132
*374 net133
*375 net134
*376 net135
*377 net136
*378 net137
*379 net138
*380 net139
*381 net14
*382 net140
*383 net141
*384 net142
*385 net143
*386 net144
*387 net145
*388 net146
*389 net147
*390 net148
*391 net149
*392 net15
*393 net150
*394 net151
*395 net152
*396 net153
*397 net154
*398 net155
*399 net156
*400 net157
*401 net158
*402 net159
*403 net16
*404 net160
*405 net161
*406 net162
*407 net163
*408 net164
*409 net165
*410 net166
*411 net167
*412 net168
*413 net169
*414 net17
*415 net170
*416 net171
*417 net172
*418 net173
*419 net174
*420 net175
*421 net176
*422 net177
*423 net178
*424 net179
*425 net18
*426 net180
*427 net181
*428 net182
*429 net183
*430 net184
*431 net185
*432 net186
*433 net187
*434 net188
*435 net189
*436 net19
*437 net190
*438 net191
*439 net192
*440 net193
*441 net194
*442 net195
*443 net196
*444 net197
*445 net198
*446 net199
*447 net2
*448 net20
*449 net200
*450 net201
*451 net202
*452 net203
*453 net204
*454 net205
*455 net206
*456 net207
*457 net208
*458 net209
*459 net21
*460 net210
*461 net211
*462 net212
*463 net213
*464 net214
*465 net215
*466 net216
*467 net217
*468 net218
*469 net219
*470 net22
*471 net220
*472 net221
*473 net222
*474 net223
*475 net224
*476 net225
*477 net226
*478 net227
*479 net228
*480 net229
*481 net23
*482 net230
*483 net231
*484 net232
*485 net233
*486 net234
*487 net235
*488 net236
*489 net237
*490 net238
*491 net239
*492 net24
*493 net240
*494 net241
*495 net242
*496 net243
*497 net244
*498 net245
*499 net246
*500 net247
*501 net248
*502 net249
*503 net25
*504 net250
*505 net251
*506 net252
*507 net253
*508 net254
*509 net255
*510 net256
*511 net257
*512 net258
*513 net259
*514 net26
*515 net260
*516 net261
*517 net262
*518 net263
*519 net264
*520 net265
*521 net266
*522 net267
*523 net268
*524 net269
*525 net27
*526 net270
*527 net271
*528 net272
*529 net273
*530 net274
*531 net275
*532 net276
*533 net277
*534 net278
*535 net279
*536 net28
*537 net280
*538 net281
*539 net282
*540 net283
*541 net284
*542 net285
*543 net286
*544 net287
*545 net288
*546 net289
*547 net29
*548 net290
*549 net291
*550 net292
*551 net293
*552 net294
*553 net295
*554 net296
*555 net297
*556 net298
*557 net299
*558 net3
*559 net30
*560 net300
*561 net301
*562 net302
*563 net303
*564 net304
*565 net305
*566 net306
*567 net307
*568 net308
*569 net309
*570 net31
*571 net310
*572 net311
*573 net312
*574 net32
*575 net33
*576 net34
*577 net35
*578 net36
*579 net37
*580 net38
*581 net39
*582 net4
*583 net40
*584 net41
*585 net42
*586 net43
*587 net44
*588 net45
*589 net46
*590 net47
*591 net48
*592 net49
*593 net5
*594 net50
*595 net51
*596 net52
*597 net53
*598 net54
*599 net55
*600 net56
*601 net57
*602 net58
*603 net59
*604 net6
*605 net60
*606 net61
*607 net62
*608 net63
*609 net64
*610 net65
*611 net66
*612 net67
*613 net68
*614 net69
*615 net7
*616 net70
*617 net71
*618 net72
*619 net73
*620 net74
*621 net75
*622 net76
*623 net77
*624 net78
*625 net79
*626 net8
*627 net80
*628 net81
*629 net82
*630 net83
*631 net84
*632 net85
*633 net86
*634 net87
*635 net88
*636 net89
*637 net9
*638 net90
*639 net91
*640 net92
*641 net93
*642 net94
*643 net95
*644 net96
*645 net97
*646 net98
*647 net99
*648 ANTENNA__021__A
*649 ANTENNA__021__B
*650 ANTENNA__021__C
*651 ANTENNA__021__D
*652 ANTENNA__022__A
*653 ANTENNA__022__B
*654 ANTENNA__022__C_N
*655 ANTENNA__022__D_N
*656 ANTENNA__024__A
*657 ANTENNA__024__B
*658 ANTENNA__024__C
*659 ANTENNA__025__A
*660 ANTENNA__025__B
*661 ANTENNA__025__C
*662 ANTENNA__025__D
*663 ANTENNA__026__A
*664 ANTENNA__026__B
*665 ANTENNA__026__C
*666 ANTENNA__026__D
*667 ANTENNA__028__A_N
*668 ANTENNA__029__A
*669 ANTENNA__030__A
*670 ANTENNA__031__A
*671 ANTENNA__032__A
*672 ANTENNA__033__A
*673 ANTENNA__034__A1
*674 ANTENNA__034__B2
*675 ANTENNA__035__A1
*676 ANTENNA__035__B2
*677 ANTENNA__036__A1
*678 ANTENNA__036__B2
*679 ANTENNA__037__A1
*680 ANTENNA__037__B2
*681 ANTENNA__038__A1
*682 ANTENNA__038__B2
*683 ANTENNA__039__A1
*684 ANTENNA__039__B2
*685 ANTENNA__040__A1
*686 ANTENNA__040__B2
*687 ANTENNA__041__A1
*688 ANTENNA__041__B2
*689 ANTENNA__042__A1
*690 ANTENNA__042__B2
*691 ANTENNA__043__A1
*692 ANTENNA__043__B2
*693 ANTENNA__044__A
*694 ANTENNA__045__A
*695 ANTENNA__046__A1
*696 ANTENNA__046__B2
*697 ANTENNA__047__A1
*698 ANTENNA__047__B2
*699 ANTENNA__048__A1
*700 ANTENNA__048__B2
*701 ANTENNA__049__A1
*702 ANTENNA__049__B2
*703 ANTENNA__050__A1
*704 ANTENNA__050__B2
*705 ANTENNA__051__A1
*706 ANTENNA__051__B2
*707 ANTENNA__052__A1
*708 ANTENNA__052__B2
*709 ANTENNA__053__A1
*710 ANTENNA__053__B2
*711 ANTENNA__054__A1
*712 ANTENNA__054__B2
*713 ANTENNA__055__A1
*714 ANTENNA__055__B2
*715 ANTENNA__056__A
*716 ANTENNA__057__A
*717 ANTENNA__058__B2
*718 ANTENNA__059__B2
*719 ANTENNA__060__B2
*720 ANTENNA__061__B2
*721 ANTENNA__062__B2
*722 ANTENNA__063__B2
*723 ANTENNA__064__B2
*724 ANTENNA__065__B2
*725 ANTENNA__066__B2
*726 ANTENNA__067__A1
*727 ANTENNA__067__B2
*728 ANTENNA__068__A1
*729 ANTENNA__068__A2
*730 ANTENNA__068__B1
*731 ANTENNA__068__B2
*732 ANTENNA__069__A1
*733 ANTENNA__069__A2
*734 ANTENNA__069__B1
*735 ANTENNA__069__B2
*736 ANTENNA__070__A1
*737 ANTENNA__070__A2
*738 ANTENNA__070__B1
*739 ANTENNA__070__B2
*740 ANTENNA__071__A
*741 ANTENNA__071__B
*742 ANTENNA__073__A
*743 ANTENNA__073__B
*744 ANTENNA__075__A
*745 ANTENNA__075__B
*746 ANTENNA__077__A
*747 ANTENNA__077__B
*748 ANTENNA__091__A
*749 ANTENNA__092__A
*750 ANTENNA__093__A
*751 ANTENNA__094__A
*752 ANTENNA__095__A
*753 ANTENNA__096__A
*754 ANTENNA__097__A
*755 ANTENNA__098__A
*756 ANTENNA__099__A
*757 ANTENNA__100__A
*758 ANTENNA__101__A
*759 ANTENNA__102__A
*760 ANTENNA__103__A
*761 ANTENNA__104__A
*762 ANTENNA__105__A
*763 ANTENNA__106__A
*764 ANTENNA__107__A
*765 ANTENNA__108__A
*766 ANTENNA__109__A
*767 ANTENNA__110__A
*768 ANTENNA__123__A
*769 ANTENNA__124__A
*770 ANTENNA__125__A
*771 ANTENNA__126__A
*772 ANTENNA__127__A
*773 ANTENNA__128__A
*774 ANTENNA__129__A
*775 ANTENNA__130__A
*776 ANTENNA__131__A
*777 ANTENNA__132__A
*778 ANTENNA__133__A
*779 ANTENNA__134__A
*780 ANTENNA__135__A
*781 ANTENNA__136__A
*782 ANTENNA__137__A
*783 ANTENNA__138__A
*784 ANTENNA__139__A
*785 ANTENNA__140__A
*786 ANTENNA__141__A
*787 ANTENNA__142__A
*788 ANTENNA__143__A
*789 ANTENNA__144__A
*790 ANTENNA__145__A
*791 ANTENNA__146__A
*792 ANTENNA__147__A
*793 ANTENNA__148__A
*794 ANTENNA__149__A
*795 ANTENNA__150__A
*796 ANTENNA__151__A
*797 ANTENNA__152__A
*798 ANTENNA__153__A
*799 ANTENNA__154__A
*800 ANTENNA__155__A
*801 ANTENNA__156__A
*802 ANTENNA__157__A
*803 ANTENNA__158__A
*804 ANTENNA__159__A
*805 ANTENNA__160__A
*806 ANTENNA__161__A
*807 ANTENNA__162__A
*808 ANTENNA__163__A
*809 ANTENNA__164__A
*810 ANTENNA__165__A
*811 ANTENNA__166__A
*812 ANTENNA__167__A
*813 ANTENNA__168__A
*814 ANTENNA__169__A
*815 ANTENNA__170__A
*816 ANTENNA__171__A
*817 ANTENNA__172__A
*818 ANTENNA__173__A
*819 ANTENNA__174__A
*820 ANTENNA__175__A
*821 ANTENNA__176__A
*822 ANTENNA__177__A
*823 ANTENNA__178__A
*824 ANTENNA__179__A
*825 ANTENNA__180__A
*826 ANTENNA__181__A
*827 ANTENNA__182__A
*828 ANTENNA__183__A
*829 ANTENNA__184__A
*830 ANTENNA__185__A
*831 ANTENNA__186__A
*832 ANTENNA__187__A
*833 ANTENNA__188__A
*834 ANTENNA__189__A
*835 ANTENNA__190__A
*836 ANTENNA__191__A
*837 ANTENNA__192__A
*838 ANTENNA__193__A
*839 ANTENNA__194__A
*840 ANTENNA__195__A
*841 ANTENNA__196__A
*842 ANTENNA__197__A
*843 ANTENNA__198__A
*844 ANTENNA__199__A
*845 ANTENNA__200__A
*846 ANTENNA__201__A
*847 ANTENNA__202__A
*848 ANTENNA__203__A
*849 ANTENNA__204__A
*850 ANTENNA__205__A
*851 ANTENNA__206__A
*852 ANTENNA__207__A
*853 ANTENNA__208__A
*854 ANTENNA__209__A
*855 ANTENNA__210__A
*856 ANTENNA__211__A
*857 ANTENNA__212__A
*858 ANTENNA__213__A
*859 ANTENNA__214__A
*860 ANTENNA__215__A
*861 ANTENNA__216__A
*862 ANTENNA_input100_A
*863 ANTENNA_input101_A
*864 ANTENNA_input102_A
*865 ANTENNA_input103_A
*866 ANTENNA_input104_A
*867 ANTENNA_input105_A
*868 ANTENNA_input106_A
*869 ANTENNA_input107_A
*870 ANTENNA_input108_A
*871 ANTENNA_input109_A
*872 ANTENNA_input10_A
*873 ANTENNA_input110_A
*874 ANTENNA_input111_A
*875 ANTENNA_input112_A
*876 ANTENNA_input113_A
*877 ANTENNA_input114_A
*878 ANTENNA_input115_A
*879 ANTENNA_input116_A
*880 ANTENNA_input117_A
*881 ANTENNA_input118_A
*882 ANTENNA_input119_A
*883 ANTENNA_input11_A
*884 ANTENNA_input120_A
*885 ANTENNA_input121_A
*886 ANTENNA_input122_A
*887 ANTENNA_input123_A
*888 ANTENNA_input124_A
*889 ANTENNA_input125_A
*890 ANTENNA_input126_A
*891 ANTENNA_input127_A
*892 ANTENNA_input128_A
*893 ANTENNA_input129_A
*894 ANTENNA_input12_A
*895 ANTENNA_input130_A
*896 ANTENNA_input131_A
*897 ANTENNA_input132_A
*898 ANTENNA_input133_A
*899 ANTENNA_input134_A
*900 ANTENNA_input135_A
*901 ANTENNA_input136_A
*902 ANTENNA_input137_A
*903 ANTENNA_input13_A
*904 ANTENNA_input14_A
*905 ANTENNA_input15_A
*906 ANTENNA_input16_A
*907 ANTENNA_input17_A
*908 ANTENNA_input18_A
*909 ANTENNA_input19_A
*910 ANTENNA_input1_A
*911 ANTENNA_input20_A
*912 ANTENNA_input21_A
*913 ANTENNA_input22_A
*914 ANTENNA_input23_A
*915 ANTENNA_input24_A
*916 ANTENNA_input25_A
*917 ANTENNA_input26_A
*918 ANTENNA_input27_A
*919 ANTENNA_input28_A
*920 ANTENNA_input29_A
*921 ANTENNA_input2_A
*922 ANTENNA_input30_A
*923 ANTENNA_input31_A
*924 ANTENNA_input32_A
*925 ANTENNA_input33_A
*926 ANTENNA_input34_A
*927 ANTENNA_input35_A
*928 ANTENNA_input36_A
*929 ANTENNA_input37_A
*930 ANTENNA_input38_A
*931 ANTENNA_input39_A
*932 ANTENNA_input3_A
*933 ANTENNA_input40_A
*934 ANTENNA_input41_A
*935 ANTENNA_input42_A
*936 ANTENNA_input43_A
*937 ANTENNA_input44_A
*938 ANTENNA_input45_A
*939 ANTENNA_input46_A
*940 ANTENNA_input47_A
*941 ANTENNA_input48_A
*942 ANTENNA_input49_A
*943 ANTENNA_input4_A
*944 ANTENNA_input50_A
*945 ANTENNA_input51_A
*946 ANTENNA_input52_A
*947 ANTENNA_input53_A
*948 ANTENNA_input54_A
*949 ANTENNA_input55_A
*950 ANTENNA_input56_A
*951 ANTENNA_input57_A
*952 ANTENNA_input58_A
*953 ANTENNA_input59_A
*954 ANTENNA_input5_A
*955 ANTENNA_input60_A
*956 ANTENNA_input61_A
*957 ANTENNA_input62_A
*958 ANTENNA_input63_A
*959 ANTENNA_input64_A
*960 ANTENNA_input65_A
*961 ANTENNA_input66_A
*962 ANTENNA_input67_A
*963 ANTENNA_input68_A
*964 ANTENNA_input69_A
*965 ANTENNA_input6_A
*966 ANTENNA_input70_A
*967 ANTENNA_input71_A
*968 ANTENNA_input72_A
*969 ANTENNA_input73_A
*970 ANTENNA_input74_A
*971 ANTENNA_input75_A
*972 ANTENNA_input76_A
*973 ANTENNA_input77_A
*974 ANTENNA_input78_A
*975 ANTENNA_input79_A
*976 ANTENNA_input7_A
*977 ANTENNA_input80_A
*978 ANTENNA_input81_A
*979 ANTENNA_input82_A
*980 ANTENNA_input83_A
*981 ANTENNA_input84_A
*982 ANTENNA_input85_A
*983 ANTENNA_input86_A
*984 ANTENNA_input87_A
*985 ANTENNA_input88_A
*986 ANTENNA_input89_A
*987 ANTENNA_input8_A
*988 ANTENNA_input90_A
*989 ANTENNA_input91_A
*990 ANTENNA_input92_A
*991 ANTENNA_input93_A
*992 ANTENNA_input94_A
*993 ANTENNA_input95_A
*994 ANTENNA_input96_A
*995 ANTENNA_input97_A
*996 ANTENNA_input98_A
*997 ANTENNA_input99_A
*998 ANTENNA_input9_A
*999 ANTENNA_output138_A
*1000 ANTENNA_output139_A
*1001 ANTENNA_output140_A
*1002 ANTENNA_output141_A
*1003 ANTENNA_output142_A
*1004 ANTENNA_output143_A
*1005 ANTENNA_output144_A
*1006 ANTENNA_output145_A
*1007 ANTENNA_output146_A
*1008 ANTENNA_output147_A
*1009 ANTENNA_output148_A
*1010 ANTENNA_output149_A
*1011 ANTENNA_output150_A
*1012 ANTENNA_output151_A
*1013 ANTENNA_output152_A
*1014 ANTENNA_output153_A
*1015 ANTENNA_output154_A
*1016 ANTENNA_output155_A
*1017 ANTENNA_output156_A
*1018 ANTENNA_output157_A
*1019 ANTENNA_output158_A
*1020 ANTENNA_output159_A
*1021 ANTENNA_output160_A
*1022 ANTENNA_output161_A
*1023 ANTENNA_output162_A
*1024 ANTENNA_output163_A
*1025 ANTENNA_output164_A
*1026 ANTENNA_output165_A
*1027 ANTENNA_output166_A
*1028 ANTENNA_output167_A
*1029 ANTENNA_output168_A
*1030 ANTENNA_output169_A
*1031 ANTENNA_output170_A
*1032 ANTENNA_output189_A
*1033 ANTENNA_output190_A
*1034 ANTENNA_output191_A
*1035 ANTENNA_output192_A
*1036 ANTENNA_output194_A
*1037 ANTENNA_output195_A
*1038 ANTENNA_output203_A
*1039 ANTENNA_output204_A
*1040 ANTENNA_output205_A
*1041 ANTENNA_output206_A
*1042 ANTENNA_output207_A
*1043 ANTENNA_output208_A
*1044 ANTENNA_output209_A
*1045 ANTENNA_output210_A
*1046 ANTENNA_output211_A
*1047 ANTENNA_output212_A
*1048 ANTENNA_output213_A
*1049 ANTENNA_output214_A
*1050 ANTENNA_output215_A
*1051 ANTENNA_output216_A
*1052 ANTENNA_output217_A
*1053 ANTENNA_output218_A
*1054 ANTENNA_output219_A
*1055 ANTENNA_output220_A
*1056 ANTENNA_output221_A
*1057 ANTENNA_output222_A
*1058 ANTENNA_output223_A
*1059 ANTENNA_output224_A
*1060 ANTENNA_output225_A
*1061 ANTENNA_output226_A
*1062 ANTENNA_output227_A
*1063 ANTENNA_output228_A
*1064 ANTENNA_output229_A
*1065 ANTENNA_output230_A
*1066 ANTENNA_output231_A
*1067 ANTENNA_output232_A
*1068 ANTENNA_output233_A
*1069 ANTENNA_output234_A
*1070 ANTENNA_output235_A
*1071 ANTENNA_output236_A
*1072 ANTENNA_output237_A
*1073 ANTENNA_output238_A
*1074 ANTENNA_output239_A
*1075 ANTENNA_output240_A
*1076 ANTENNA_output241_A
*1077 ANTENNA_output242_A
*1078 ANTENNA_output243_A
*1079 ANTENNA_output244_A
*1080 ANTENNA_output245_A
*1081 ANTENNA_output246_A
*1082 ANTENNA_output247_A
*1083 ANTENNA_output248_A
*1084 ANTENNA_output249_A
*1085 ANTENNA_output250_A
*1086 ANTENNA_output251_A
*1087 ANTENNA_output252_A
*1088 ANTENNA_output253_A
*1089 ANTENNA_output254_A
*1090 ANTENNA_output255_A
*1091 ANTENNA_output256_A
*1092 ANTENNA_output257_A
*1093 ANTENNA_output258_A
*1094 ANTENNA_output259_A
*1095 ANTENNA_output260_A
*1096 ANTENNA_output261_A
*1097 ANTENNA_output262_A
*1098 ANTENNA_output263_A
*1099 ANTENNA_output264_A
*1100 ANTENNA_output265_A
*1101 ANTENNA_output266_A
*1102 ANTENNA_output267_A
*1103 ANTENNA_output268_A
*1104 ANTENNA_output269_A
*1105 ANTENNA_output270_A
*1106 ANTENNA_output271_A
*1107 ANTENNA_output272_A
*1108 ANTENNA_output273_A
*1109 ANTENNA_output274_A
*1110 ANTENNA_output275_A
*1111 ANTENNA_output276_A
*1112 ANTENNA_output277_A
*1113 ANTENNA_output278_A
*1114 ANTENNA_output279_A
*1115 ANTENNA_output280_A
*1116 ANTENNA_output281_A
*1117 ANTENNA_output282_A
*1118 ANTENNA_output283_A
*1119 ANTENNA_output284_A
*1120 ANTENNA_output285_A
*1121 ANTENNA_output286_A
*1122 ANTENNA_output287_A
*1123 ANTENNA_output288_A
*1124 ANTENNA_output289_A
*1125 ANTENNA_output290_A
*1126 ANTENNA_output291_A
*1127 ANTENNA_output292_A
*1128 ANTENNA_output293_A
*1129 ANTENNA_output294_A
*1130 ANTENNA_output295_A
*1131 ANTENNA_output296_A
*1132 ANTENNA_output297_A
*1133 ANTENNA_output298_A
*1134 ANTENNA_output299_A
*1135 ANTENNA_output300_A
*1136 ANTENNA_output305_A
*1137 ANTENNA_output306_A
*1138 ANTENNA_output307_A
*1139 ANTENNA_output308_A
*1140 ANTENNA_output309_A
*1141 ANTENNA_output310_A
*1142 ANTENNA_output312_A
*1143 FILLER_0_102
*1144 FILLER_0_110
*1145 FILLER_0_113
*1146 FILLER_0_119
*1147 FILLER_0_12
*1148 FILLER_0_133
*1149 FILLER_0_139
*1150 FILLER_0_141
*1151 FILLER_0_157
*1152 FILLER_0_161
*1153 FILLER_0_166
*1154 FILLER_0_169
*1155 FILLER_0_173
*1156 FILLER_0_178
*1157 FILLER_0_186
*1158 FILLER_0_19
*1159 FILLER_0_194
*1160 FILLER_0_197
*1161 FILLER_0_201
*1162 FILLER_0_206
*1163 FILLER_0_214
*1164 FILLER_0_222
*1165 FILLER_0_225
*1166 FILLER_0_229
*1167 FILLER_0_234
*1168 FILLER_0_242
*1169 FILLER_0_250
*1170 FILLER_0_253
*1171 FILLER_0_26
*1172 FILLER_0_263
*1173 FILLER_0_267
*1174 FILLER_0_278
*1175 FILLER_0_281
*1176 FILLER_0_285
*1177 FILLER_0_289
*1178 FILLER_0_29
*1179 FILLER_0_292
*1180 FILLER_0_3
*1181 FILLER_0_306
*1182 FILLER_0_309
*1183 FILLER_0_313
*1184 FILLER_0_317
*1185 FILLER_0_320
*1186 FILLER_0_334
*1187 FILLER_0_337
*1188 FILLER_0_349
*1189 FILLER_0_357
*1190 FILLER_0_362
*1191 FILLER_0_365
*1192 FILLER_0_369
*1193 FILLER_0_374
*1194 FILLER_0_38
*1195 FILLER_0_382
*1196 FILLER_0_390
*1197 FILLER_0_393
*1198 FILLER_0_397
*1199 FILLER_0_402
*1200 FILLER_0_410
*1201 FILLER_0_418
*1202 FILLER_0_42
*1203 FILLER_0_421
*1204 FILLER_0_431
*1205 FILLER_0_439
*1206 FILLER_0_443
*1207 FILLER_0_446
*1208 FILLER_0_449
*1209 FILLER_0_455
*1210 FILLER_0_46
*1211 FILLER_0_463
*1212 FILLER_0_471
*1213 FILLER_0_475
*1214 FILLER_0_477
*1215 FILLER_0_483
*1216 FILLER_0_491
*1217 FILLER_0_499
*1218 FILLER_0_50
*1219 FILLER_0_503
*1220 FILLER_0_505
*1221 FILLER_0_511
*1222 FILLER_0_519
*1223 FILLER_0_527
*1224 FILLER_0_531
*1225 FILLER_0_533
*1226 FILLER_0_539
*1227 FILLER_0_54
*1228 FILLER_0_547
*1229 FILLER_0_555
*1230 FILLER_0_559
*1231 FILLER_0_561
*1232 FILLER_0_567
*1233 FILLER_0_57
*1234 FILLER_0_575
*1235 FILLER_0_583
*1236 FILLER_0_587
*1237 FILLER_0_589
*1238 FILLER_0_595
*1239 FILLER_0_603
*1240 FILLER_0_61
*1241 FILLER_0_611
*1242 FILLER_0_615
*1243 FILLER_0_617
*1244 FILLER_0_623
*1245 FILLER_0_631
*1246 FILLER_0_639
*1247 FILLER_0_643
*1248 FILLER_0_645
*1249 FILLER_0_651
*1250 FILLER_0_659
*1251 FILLER_0_667
*1252 FILLER_0_671
*1253 FILLER_0_673
*1254 FILLER_0_679
*1255 FILLER_0_68
*1256 FILLER_0_687
*1257 FILLER_0_695
*1258 FILLER_0_699
*1259 FILLER_0_701
*1260 FILLER_0_707
*1261 FILLER_0_715
*1262 FILLER_0_723
*1263 FILLER_0_727
*1264 FILLER_0_729
*1265 FILLER_0_735
*1266 FILLER_0_743
*1267 FILLER_0_75
*1268 FILLER_0_751
*1269 FILLER_0_755
*1270 FILLER_0_757
*1271 FILLER_0_763
*1272 FILLER_0_771
*1273 FILLER_0_779
*1274 FILLER_0_783
*1275 FILLER_0_785
*1276 FILLER_0_791
*1277 FILLER_0_799
*1278 FILLER_0_807
*1279 FILLER_0_811
*1280 FILLER_0_813
*1281 FILLER_0_82
*1282 FILLER_0_821
*1283 FILLER_0_829
*1284 FILLER_0_837
*1285 FILLER_0_841
*1286 FILLER_0_85
*1287 FILLER_0_94
*1288 FILLER_0_98
*1289 FILLER_100_109
*1290 FILLER_100_121
*1291 FILLER_100_133
*1292 FILLER_100_139
*1293 FILLER_100_141
*1294 FILLER_100_15
*1295 FILLER_100_153
*1296 FILLER_100_165
*1297 FILLER_100_177
*1298 FILLER_100_189
*1299 FILLER_100_195
*1300 FILLER_100_197
*1301 FILLER_100_209
*1302 FILLER_100_221
*1303 FILLER_100_233
*1304 FILLER_100_245
*1305 FILLER_100_251
*1306 FILLER_100_253
*1307 FILLER_100_265
*1308 FILLER_100_27
*1309 FILLER_100_277
*1310 FILLER_100_289
*1311 FILLER_100_29
*1312 FILLER_100_3
*1313 FILLER_100_301
*1314 FILLER_100_307
*1315 FILLER_100_309
*1316 FILLER_100_321
*1317 FILLER_100_333
*1318 FILLER_100_345
*1319 FILLER_100_357
*1320 FILLER_100_363
*1321 FILLER_100_365
*1322 FILLER_100_377
*1323 FILLER_100_389
*1324 FILLER_100_401
*1325 FILLER_100_41
*1326 FILLER_100_413
*1327 FILLER_100_419
*1328 FILLER_100_421
*1329 FILLER_100_433
*1330 FILLER_100_445
*1331 FILLER_100_457
*1332 FILLER_100_469
*1333 FILLER_100_475
*1334 FILLER_100_477
*1335 FILLER_100_489
*1336 FILLER_100_501
*1337 FILLER_100_513
*1338 FILLER_100_525
*1339 FILLER_100_53
*1340 FILLER_100_531
*1341 FILLER_100_533
*1342 FILLER_100_545
*1343 FILLER_100_557
*1344 FILLER_100_569
*1345 FILLER_100_581
*1346 FILLER_100_587
*1347 FILLER_100_589
*1348 FILLER_100_601
*1349 FILLER_100_605
*1350 FILLER_100_608
*1351 FILLER_100_620
*1352 FILLER_100_632
*1353 FILLER_100_638
*1354 FILLER_100_645
*1355 FILLER_100_649
*1356 FILLER_100_65
*1357 FILLER_100_655
*1358 FILLER_100_667
*1359 FILLER_100_679
*1360 FILLER_100_691
*1361 FILLER_100_699
*1362 FILLER_100_701
*1363 FILLER_100_713
*1364 FILLER_100_725
*1365 FILLER_100_737
*1366 FILLER_100_749
*1367 FILLER_100_755
*1368 FILLER_100_757
*1369 FILLER_100_769
*1370 FILLER_100_77
*1371 FILLER_100_781
*1372 FILLER_100_793
*1373 FILLER_100_805
*1374 FILLER_100_811
*1375 FILLER_100_813
*1376 FILLER_100_825
*1377 FILLER_100_83
*1378 FILLER_100_833
*1379 FILLER_100_840
*1380 FILLER_100_85
*1381 FILLER_100_9
*1382 FILLER_100_97
*1383 FILLER_101_105
*1384 FILLER_101_111
*1385 FILLER_101_113
*1386 FILLER_101_125
*1387 FILLER_101_137
*1388 FILLER_101_149
*1389 FILLER_101_161
*1390 FILLER_101_167
*1391 FILLER_101_169
*1392 FILLER_101_181
*1393 FILLER_101_193
*1394 FILLER_101_205
*1395 FILLER_101_21
*1396 FILLER_101_217
*1397 FILLER_101_223
*1398 FILLER_101_225
*1399 FILLER_101_237
*1400 FILLER_101_249
*1401 FILLER_101_261
*1402 FILLER_101_273
*1403 FILLER_101_279
*1404 FILLER_101_281
*1405 FILLER_101_293
*1406 FILLER_101_3
*1407 FILLER_101_305
*1408 FILLER_101_317
*1409 FILLER_101_329
*1410 FILLER_101_33
*1411 FILLER_101_335
*1412 FILLER_101_337
*1413 FILLER_101_349
*1414 FILLER_101_361
*1415 FILLER_101_373
*1416 FILLER_101_385
*1417 FILLER_101_391
*1418 FILLER_101_393
*1419 FILLER_101_405
*1420 FILLER_101_417
*1421 FILLER_101_429
*1422 FILLER_101_441
*1423 FILLER_101_447
*1424 FILLER_101_449
*1425 FILLER_101_45
*1426 FILLER_101_461
*1427 FILLER_101_473
*1428 FILLER_101_485
*1429 FILLER_101_497
*1430 FILLER_101_503
*1431 FILLER_101_505
*1432 FILLER_101_517
*1433 FILLER_101_529
*1434 FILLER_101_53
*1435 FILLER_101_541
*1436 FILLER_101_553
*1437 FILLER_101_559
*1438 FILLER_101_561
*1439 FILLER_101_57
*1440 FILLER_101_573
*1441 FILLER_101_585
*1442 FILLER_101_597
*1443 FILLER_101_609
*1444 FILLER_101_615
*1445 FILLER_101_617
*1446 FILLER_101_622
*1447 FILLER_101_628
*1448 FILLER_101_632
*1449 FILLER_101_641
*1450 FILLER_101_647
*1451 FILLER_101_659
*1452 FILLER_101_671
*1453 FILLER_101_673
*1454 FILLER_101_685
*1455 FILLER_101_69
*1456 FILLER_101_697
*1457 FILLER_101_709
*1458 FILLER_101_721
*1459 FILLER_101_727
*1460 FILLER_101_729
*1461 FILLER_101_741
*1462 FILLER_101_753
*1463 FILLER_101_765
*1464 FILLER_101_777
*1465 FILLER_101_783
*1466 FILLER_101_785
*1467 FILLER_101_797
*1468 FILLER_101_809
*1469 FILLER_101_81
*1470 FILLER_101_821
*1471 FILLER_101_833
*1472 FILLER_101_838
*1473 FILLER_101_841
*1474 FILLER_101_9
*1475 FILLER_101_93
*1476 FILLER_102_109
*1477 FILLER_102_121
*1478 FILLER_102_133
*1479 FILLER_102_139
*1480 FILLER_102_141
*1481 FILLER_102_153
*1482 FILLER_102_165
*1483 FILLER_102_177
*1484 FILLER_102_189
*1485 FILLER_102_19
*1486 FILLER_102_195
*1487 FILLER_102_197
*1488 FILLER_102_209
*1489 FILLER_102_221
*1490 FILLER_102_233
*1491 FILLER_102_245
*1492 FILLER_102_251
*1493 FILLER_102_253
*1494 FILLER_102_265
*1495 FILLER_102_27
*1496 FILLER_102_277
*1497 FILLER_102_289
*1498 FILLER_102_29
*1499 FILLER_102_3
*1500 FILLER_102_301
*1501 FILLER_102_307
*1502 FILLER_102_309
*1503 FILLER_102_321
*1504 FILLER_102_333
*1505 FILLER_102_345
*1506 FILLER_102_357
*1507 FILLER_102_363
*1508 FILLER_102_365
*1509 FILLER_102_377
*1510 FILLER_102_389
*1511 FILLER_102_401
*1512 FILLER_102_41
*1513 FILLER_102_413
*1514 FILLER_102_419
*1515 FILLER_102_421
*1516 FILLER_102_433
*1517 FILLER_102_445
*1518 FILLER_102_457
*1519 FILLER_102_469