* NGSPICE file created from merge_memory.ext - technology: gf180mcuC

* Black-box entry subcircuit for gf180mcu_fd_sc_mcu7t5v0__fillcap_64 abstract view
.subckt gf180mcu_fd_sc_mcu7t5v0__fillcap_64 VDD VSS
.ends

* Black-box entry subcircuit for gf180mcu_fd_sc_mcu7t5v0__filltie abstract view
.subckt gf180mcu_fd_sc_mcu7t5v0__filltie VDD VSS
.ends

* Black-box entry subcircuit for gf180mcu_fd_sc_mcu7t5v0__fillcap_4 abstract view
.subckt gf180mcu_fd_sc_mcu7t5v0__fillcap_4 VDD VSS
.ends

* Black-box entry subcircuit for gf180mcu_fd_sc_mcu7t5v0__fill_1 abstract view
.subckt gf180mcu_fd_sc_mcu7t5v0__fill_1 VDD VSS
.ends

* Black-box entry subcircuit for gf180mcu_fd_sc_mcu7t5v0__antenna abstract view
.subckt gf180mcu_fd_sc_mcu7t5v0__antenna I VDD VSS
.ends

* Black-box entry subcircuit for gf180mcu_fd_sc_mcu7t5v0__fillcap_16 abstract view
.subckt gf180mcu_fd_sc_mcu7t5v0__fillcap_16 VDD VSS
.ends

* Black-box entry subcircuit for gf180mcu_fd_sc_mcu7t5v0__fill_2 abstract view
.subckt gf180mcu_fd_sc_mcu7t5v0__fill_2 VDD VSS
.ends

* Black-box entry subcircuit for gf180mcu_fd_sc_mcu7t5v0__fillcap_32 abstract view
.subckt gf180mcu_fd_sc_mcu7t5v0__fillcap_32 VDD VSS
.ends

* Black-box entry subcircuit for gf180mcu_fd_sc_mcu7t5v0__clkbuf_1 abstract view
.subckt gf180mcu_fd_sc_mcu7t5v0__clkbuf_1 I Z VDD VSS
.ends

* Black-box entry subcircuit for gf180mcu_fd_sc_mcu7t5v0__mux2_2 abstract view
.subckt gf180mcu_fd_sc_mcu7t5v0__mux2_2 I0 I1 S Z VDD VSS
.ends

* Black-box entry subcircuit for gf180mcu_fd_sc_mcu7t5v0__clkbuf_4 abstract view
.subckt gf180mcu_fd_sc_mcu7t5v0__clkbuf_4 I Z VDD VSS
.ends

* Black-box entry subcircuit for gf180mcu_fd_sc_mcu7t5v0__fillcap_8 abstract view
.subckt gf180mcu_fd_sc_mcu7t5v0__fillcap_8 VDD VSS
.ends

* Black-box entry subcircuit for gf180mcu_fd_sc_mcu7t5v0__buf_2 abstract view
.subckt gf180mcu_fd_sc_mcu7t5v0__buf_2 I Z VDD VSS
.ends

* Black-box entry subcircuit for gf180mcu_fd_sc_mcu7t5v0__endcap abstract view
.subckt gf180mcu_fd_sc_mcu7t5v0__endcap VDD VSS
.ends

.subckt merge_memory addr[0] addr[1] addr[2] addr[3] addr[4] addr[5] addr[6] addr[7]
+ addr[8] addr[9] addr_mem0[0] addr_mem0[1] addr_mem0[2] addr_mem0[3] addr_mem0[4]
+ addr_mem0[5] addr_mem0[6] addr_mem0[7] addr_mem0[8] addr_mem1[0] addr_mem1[1] addr_mem1[2]
+ addr_mem1[3] addr_mem1[4] addr_mem1[5] addr_mem1[6] addr_mem1[7] addr_mem1[8] csb
+ csb_mem0 csb_mem1 dout[0] dout[10] dout[11] dout[12] dout[13] dout[14] dout[15]
+ dout[16] dout[17] dout[18] dout[19] dout[1] dout[20] dout[21] dout[22] dout[23]
+ dout[24] dout[25] dout[26] dout[27] dout[28] dout[29] dout[2] dout[30] dout[31]
+ dout[3] dout[4] dout[5] dout[6] dout[7] dout[8] dout[9] dout_mem0[0] dout_mem0[10]
+ dout_mem0[11] dout_mem0[12] dout_mem0[13] dout_mem0[14] dout_mem0[15] dout_mem0[16]
+ dout_mem0[17] dout_mem0[18] dout_mem0[19] dout_mem0[1] dout_mem0[20] dout_mem0[21]
+ dout_mem0[22] dout_mem0[23] dout_mem0[24] dout_mem0[25] dout_mem0[26] dout_mem0[27]
+ dout_mem0[28] dout_mem0[29] dout_mem0[2] dout_mem0[30] dout_mem0[31] dout_mem0[3]
+ dout_mem0[4] dout_mem0[5] dout_mem0[6] dout_mem0[7] dout_mem0[8] dout_mem0[9] dout_mem1[0]
+ dout_mem1[10] dout_mem1[11] dout_mem1[12] dout_mem1[13] dout_mem1[14] dout_mem1[15]
+ dout_mem1[16] dout_mem1[17] dout_mem1[18] dout_mem1[19] dout_mem1[1] dout_mem1[20]
+ dout_mem1[21] dout_mem1[22] dout_mem1[23] dout_mem1[24] dout_mem1[25] dout_mem1[26]
+ dout_mem1[27] dout_mem1[28] dout_mem1[29] dout_mem1[2] dout_mem1[30] dout_mem1[31]
+ dout_mem1[3] dout_mem1[4] dout_mem1[5] dout_mem1[6] dout_mem1[7] dout_mem1[8] dout_mem1[9]
+ vdd vss
XFILLER_27_428 vdd vss gf180mcu_fd_sc_mcu7t5v0__fillcap_64
XTAP_177 vdd vss gf180mcu_fd_sc_mcu7t5v0__filltie
XTAP_188 vdd vss gf180mcu_fd_sc_mcu7t5v0__filltie
XTAP_199 vdd vss gf180mcu_fd_sc_mcu7t5v0__filltie
XFILLER_23_634 vdd vss gf180mcu_fd_sc_mcu7t5v0__fillcap_4
XFILLER_11_1064 vdd vss gf180mcu_fd_sc_mcu7t5v0__fill_1
XANTENNA_input73_I dout_mem1[7] vdd vss gf180mcu_fd_sc_mcu7t5v0__antenna
XFILLER_2_527 vdd vss gf180mcu_fd_sc_mcu7t5v0__fillcap_4
XFILLER_19_918 vdd vss gf180mcu_fd_sc_mcu7t5v0__fillcap_4
XFILLER_2_1210 vdd vss gf180mcu_fd_sc_mcu7t5v0__fillcap_4
XFILLER_2_1276 vdd vss gf180mcu_fd_sc_mcu7t5v0__fillcap_16
XFILLER_13_144 vdd vss gf180mcu_fd_sc_mcu7t5v0__fillcap_64
XFILLER_6_811 vdd vss gf180mcu_fd_sc_mcu7t5v0__fillcap_4
XFILLER_9_137 vdd vss gf180mcu_fd_sc_mcu7t5v0__fillcap_4
XFILLER_5_354 vdd vss gf180mcu_fd_sc_mcu7t5v0__fill_1
XFILLER_36_247 vdd vss gf180mcu_fd_sc_mcu7t5v0__fill_1
XFILLER_27_1060 vdd vss gf180mcu_fd_sc_mcu7t5v0__fillcap_4
XFILLER_3_1018 vdd vss gf180mcu_fd_sc_mcu7t5v0__fill_1
XFILLER_3_1029 vdd vss gf180mcu_fd_sc_mcu7t5v0__fill_2
XFILLER_34_1031 vdd vss gf180mcu_fd_sc_mcu7t5v0__fillcap_64
XFILLER_17_1273 vdd vss gf180mcu_fd_sc_mcu7t5v0__fillcap_4
XFILLER_3_847 vdd vss gf180mcu_fd_sc_mcu7t5v0__fillcap_4
XFILLER_37_73 vdd vss gf180mcu_fd_sc_mcu7t5v0__fillcap_64
XFILLER_24_1244 vdd vss gf180mcu_fd_sc_mcu7t5v0__fillcap_32
XFILLER_18_247 vdd vss gf180mcu_fd_sc_mcu7t5v0__fill_1
XFILLER_2_1040 vdd vss gf180mcu_fd_sc_mcu7t5v0__fill_2
XFILLER_41_283 vdd vss gf180mcu_fd_sc_mcu7t5v0__fill_1
XFILLER_30_957 vdd vss gf180mcu_fd_sc_mcu7t5v0__fill_1
XFILLER_37_567 vdd vss gf180mcu_fd_sc_mcu7t5v0__fill_1
XFILLER_32_250 vdd vss gf180mcu_fd_sc_mcu7t5v0__fillcap_64
XFILLER_20_456 vdd vss gf180mcu_fd_sc_mcu7t5v0__fillcap_4
XFILLER_12_1170 vdd vss gf180mcu_fd_sc_mcu7t5v0__fill_1
XFILLER_28_534 vdd vss gf180mcu_fd_sc_mcu7t5v0__fillcap_64
XANTENNA_input36_I dout_mem0[31] vdd vss gf180mcu_fd_sc_mcu7t5v0__antenna
XFILLER_24_740 vdd vss gf180mcu_fd_sc_mcu7t5v0__fillcap_4
XFILLER_23_283 vdd vss gf180mcu_fd_sc_mcu7t5v0__fill_1
XFILLER_12_957 vdd vss gf180mcu_fd_sc_mcu7t5v0__fill_1
X_131_ net7 net91 vdd vss gf180mcu_fd_sc_mcu7t5v0__clkbuf_1
X_062_ net29 net61 _009_ _010_ vdd vss gf180mcu_fd_sc_mcu7t5v0__mux2_2
XFILLER_30_1292 vdd vss gf180mcu_fd_sc_mcu7t5v0__fill_2
XFILLER_2_176 vdd vss gf180mcu_fd_sc_mcu7t5v0__fill_1
XFILLER_19_567 vdd vss gf180mcu_fd_sc_mcu7t5v0__fill_1
XFILLER_4_1102 vdd vss gf180mcu_fd_sc_mcu7t5v0__fillcap_32
XFILLER_14_250 vdd vss gf180mcu_fd_sc_mcu7t5v0__fillcap_64
XFILLER_9_66 vdd vss gf180mcu_fd_sc_mcu7t5v0__fillcap_4
XFILLER_31_1067 vdd vss gf180mcu_fd_sc_mcu7t5v0__fillcap_64
XFILLER_6_460 vdd vss gf180mcu_fd_sc_mcu7t5v0__fill_1
XFILLER_33_570 vdd vss gf180mcu_fd_sc_mcu7t5v0__fillcap_64
XFILLER_21_776 vdd vss gf180mcu_fd_sc_mcu7t5v0__fillcap_4
XFILLER_14_1276 vdd vss gf180mcu_fd_sc_mcu7t5v0__fillcap_16
XFILLER_0_603 vdd vss gf180mcu_fd_sc_mcu7t5v0__fill_2
XFILLER_29_854 vdd vss gf180mcu_fd_sc_mcu7t5v0__fillcap_64
XFILLER_8_747 vdd vss gf180mcu_fd_sc_mcu7t5v0__fillcap_64
XTAP_507 vdd vss gf180mcu_fd_sc_mcu7t5v0__filltie
XFILLER_11_286 vdd vss gf180mcu_fd_sc_mcu7t5v0__fillcap_64
X_114_ net19 net51 _035_ _039_ vdd vss gf180mcu_fd_sc_mcu7t5v0__mux2_2
X_045_ _000_ net104 vdd vss gf180mcu_fd_sc_mcu7t5v0__clkbuf_1
XFILLER_4_953 vdd vss gf180mcu_fd_sc_mcu7t5v0__fillcap_4
XFILLER_7_279 vdd vss gf180mcu_fd_sc_mcu7t5v0__fillcap_4
XTAP_518 vdd vss gf180mcu_fd_sc_mcu7t5v0__filltie
XTAP_529 vdd vss gf180mcu_fd_sc_mcu7t5v0__filltie
XFILLER_3_496 vdd vss gf180mcu_fd_sc_mcu7t5v0__fill_1
XFILLER_34_389 vdd vss gf180mcu_fd_sc_mcu7t5v0__fill_1
XFILLER_15_570 vdd vss gf180mcu_fd_sc_mcu7t5v0__fillcap_64
XFILLER_7_780 vdd vss gf180mcu_fd_sc_mcu7t5v0__fill_1
XFILLER_38_673 vdd vss gf180mcu_fd_sc_mcu7t5v0__fill_1
XFILLER_14_1095 vdd vss gf180mcu_fd_sc_mcu7t5v0__fillcap_4
XFILLER_0_422 vdd vss gf180mcu_fd_sc_mcu7t5v0__fill_2
XFILLER_1_945 vdd vss gf180mcu_fd_sc_mcu7t5v0__fill_2
XFILLER_28_172 vdd vss gf180mcu_fd_sc_mcu7t5v0__fillcap_4
XFILLER_16_389 vdd vss gf180mcu_fd_sc_mcu7t5v0__fill_1
XFILLER_1_1127 vdd vss gf180mcu_fd_sc_mcu7t5v0__fill_2
XFILLER_1_1138 vdd vss gf180mcu_fd_sc_mcu7t5v0__fill_1
XFILLER_40_882 vdd vss gf180mcu_fd_sc_mcu7t5v0__fillcap_4
XFILLER_32_1173 vdd vss gf180mcu_fd_sc_mcu7t5v0__fillcap_64
XFILLER_6_34 vdd vss gf180mcu_fd_sc_mcu7t5v0__fill_1
XTAP_348 vdd vss gf180mcu_fd_sc_mcu7t5v0__filltie
XTAP_337 vdd vss gf180mcu_fd_sc_mcu7t5v0__filltie
XTAP_326 vdd vss gf180mcu_fd_sc_mcu7t5v0__filltie
XTAP_315 vdd vss gf180mcu_fd_sc_mcu7t5v0__filltie
XTAP_304 vdd vss gf180mcu_fd_sc_mcu7t5v0__filltie
XTAP_359 vdd vss gf180mcu_fd_sc_mcu7t5v0__filltie
XFILLER_30_392 vdd vss gf180mcu_fd_sc_mcu7t5v0__fillcap_64
XFILLER_11_1202 vdd vss gf180mcu_fd_sc_mcu7t5v0__fillcap_4
XTAP_893 vdd vss gf180mcu_fd_sc_mcu7t5v0__filltie
XTAP_882 vdd vss gf180mcu_fd_sc_mcu7t5v0__filltie
XTAP_871 vdd vss gf180mcu_fd_sc_mcu7t5v0__filltie
XTAP_860 vdd vss gf180mcu_fd_sc_mcu7t5v0__filltie
XFILLER_40_101 vdd vss gf180mcu_fd_sc_mcu7t5v0__fillcap_4
XFILLER_39_993 vdd vss gf180mcu_fd_sc_mcu7t5v0__fill_1
XANTENNA_output105_I net105 vdd vss gf180mcu_fd_sc_mcu7t5v0__antenna
XFILLER_26_676 vdd vss gf180mcu_fd_sc_mcu7t5v0__fillcap_64
XFILLER_22_882 vdd vss gf180mcu_fd_sc_mcu7t5v0__fillcap_4
XFILLER_16_1102 vdd vss gf180mcu_fd_sc_mcu7t5v0__fillcap_64
Xoutput97 net97 dout[10] vdd vss gf180mcu_fd_sc_mcu7t5v0__clkbuf_4
Xoutput86 net86 addr_mem1[1] vdd vss gf180mcu_fd_sc_mcu7t5v0__clkbuf_4
XFILLER_0_296 vdd vss gf180mcu_fd_sc_mcu7t5v0__fillcap_4
XFILLER_32_602 vdd vss gf180mcu_fd_sc_mcu7t5v0__fill_1
XFILLER_29_492 vdd vss gf180mcu_fd_sc_mcu7t5v0__fillcap_4
XFILLER_12_392 vdd vss gf180mcu_fd_sc_mcu7t5v0__fillcap_64
XFILLER_8_385 vdd vss gf180mcu_fd_sc_mcu7t5v0__fillcap_4
XFILLER_41_1206 vdd vss gf180mcu_fd_sc_mcu7t5v0__fill_1
XFILLER_39_212 vdd vss gf180mcu_fd_sc_mcu7t5v0__fill_1
XFILLER_28_1028 vdd vss gf180mcu_fd_sc_mcu7t5v0__fill_1
XTAP_101 vdd vss gf180mcu_fd_sc_mcu7t5v0__filltie
XTAP_123 vdd vss gf180mcu_fd_sc_mcu7t5v0__filltie
XTAP_134 vdd vss gf180mcu_fd_sc_mcu7t5v0__filltie
XTAP_112 vdd vss gf180mcu_fd_sc_mcu7t5v0__filltie
XTAP_145 vdd vss gf180mcu_fd_sc_mcu7t5v0__filltie
XTAP_156 vdd vss gf180mcu_fd_sc_mcu7t5v0__filltie
XTAP_167 vdd vss gf180mcu_fd_sc_mcu7t5v0__filltie
XTAP_178 vdd vss gf180mcu_fd_sc_mcu7t5v0__filltie
XTAP_189 vdd vss gf180mcu_fd_sc_mcu7t5v0__filltie
XFILLER_39_1135 vdd vss gf180mcu_fd_sc_mcu7t5v0__fill_1
XFILLER_22_101 vdd vss gf180mcu_fd_sc_mcu7t5v0__fillcap_4
XFILLER_10_318 vdd vss gf180mcu_fd_sc_mcu7t5v0__fill_1
XANTENNA_input66_I dout_mem1[2] vdd vss gf180mcu_fd_sc_mcu7t5v0__antenna
XTAP_690 vdd vss gf180mcu_fd_sc_mcu7t5v0__filltie
XFILLER_2_1200 vdd vss gf180mcu_fd_sc_mcu7t5v0__fill_2
XFILLER_42_944 vdd vss gf180mcu_fd_sc_mcu7t5v0__fill_1
XFILLER_41_421 vdd vss gf180mcu_fd_sc_mcu7t5v0__fillcap_4
XFILLER_27_996 vdd vss gf180mcu_fd_sc_mcu7t5v0__fillcap_64
XFILLER_14_602 vdd vss gf180mcu_fd_sc_mcu7t5v0__fill_1
XFILLER_2_1244 vdd vss gf180mcu_fd_sc_mcu7t5v0__fill_1
XFILLER_10_885 vdd vss gf180mcu_fd_sc_mcu7t5v0__fill_2
XFILLER_10_874 vdd vss gf180mcu_fd_sc_mcu7t5v0__fill_1
XFILLER_6_889 vdd vss gf180mcu_fd_sc_mcu7t5v0__fillcap_64
XFILLER_37_705 vdd vss gf180mcu_fd_sc_mcu7t5v0__fillcap_4
XFILLER_33_922 vdd vss gf180mcu_fd_sc_mcu7t5v0__fill_1
XFILLER_3_1008 vdd vss gf180mcu_fd_sc_mcu7t5v0__fillcap_8
XFILLER_20_605 vdd vss gf180mcu_fd_sc_mcu7t5v0__fillcap_64
XFILLER_27_215 vdd vss gf180mcu_fd_sc_mcu7t5v0__fillcap_64
XFILLER_23_421 vdd vss gf180mcu_fd_sc_mcu7t5v0__fillcap_4
XFILLER_17_1296 vdd vss gf180mcu_fd_sc_mcu7t5v0__fill_2
XFILLER_13_1138 vdd vss gf180mcu_fd_sc_mcu7t5v0__fillcap_64
XFILLER_11_638 vdd vss gf180mcu_fd_sc_mcu7t5v0__fill_1
XFILLER_6_108 vdd vss gf180mcu_fd_sc_mcu7t5v0__fillcap_64
XFILLER_2_314 vdd vss gf180mcu_fd_sc_mcu7t5v0__fillcap_4
XFILLER_19_705 vdd vss gf180mcu_fd_sc_mcu7t5v0__fillcap_4
XFILLER_15_922 vdd vss gf180mcu_fd_sc_mcu7t5v0__fill_1
XFILLER_2_1096 vdd vss gf180mcu_fd_sc_mcu7t5v0__fillcap_4
XFILLER_5_141 vdd vss gf180mcu_fd_sc_mcu7t5v0__fill_1
XFILLER_42_1312 vdd vss gf180mcu_fd_sc_mcu7t5v0__fill_1
XFILLER_2_870 vdd vss gf180mcu_fd_sc_mcu7t5v0__fill_1
XFILLER_2_881 vdd vss gf180mcu_fd_sc_mcu7t5v0__fill_2
XFILLER_2_892 vdd vss gf180mcu_fd_sc_mcu7t5v0__fill_2
XFILLER_9_1206 vdd vss gf180mcu_fd_sc_mcu7t5v0__fill_1
XFILLER_21_925 vdd vss gf180mcu_fd_sc_mcu7t5v0__fillcap_64
XFILLER_0_807 vdd vss gf180mcu_fd_sc_mcu7t5v0__fill_1
XANTENNA_input29_I dout_mem0[25] vdd vss gf180mcu_fd_sc_mcu7t5v0__antenna
XFILLER_17_1060 vdd vss gf180mcu_fd_sc_mcu7t5v0__fillcap_4
XFILLER_12_947 vdd vss gf180mcu_fd_sc_mcu7t5v0__fillcap_8
X_130_ net6 net90 vdd vss gf180mcu_fd_sc_mcu7t5v0__clkbuf_1
XANTENNA_output97_I net97 vdd vss gf180mcu_fd_sc_mcu7t5v0__antenna
X_061_ _040_ _009_ vdd vss gf180mcu_fd_sc_mcu7t5v0__buf_2
XFILLER_3_634 vdd vss gf180mcu_fd_sc_mcu7t5v0__fillcap_4
XFILLER_7_428 vdd vss gf180mcu_fd_sc_mcu7t5v0__fillcap_64
XFILLER_24_1031 vdd vss gf180mcu_fd_sc_mcu7t5v0__fillcap_64
XFILLER_3_2 vdd vss gf180mcu_fd_sc_mcu7t5v0__fillcap_64
XFILLER_34_527 vdd vss gf180mcu_fd_sc_mcu7t5v0__fillcap_4
XFILLER_0_69 vdd vss gf180mcu_fd_sc_mcu7t5v0__fill_1
XFILLER_4_1158 vdd vss gf180mcu_fd_sc_mcu7t5v0__fillcap_8
XFILLER_30_744 vdd vss gf180mcu_fd_sc_mcu7t5v0__fill_1
XFILLER_36_2 vdd vss gf180mcu_fd_sc_mcu7t5v0__fillcap_32
XFILLER_38_811 vdd vss gf180mcu_fd_sc_mcu7t5v0__fillcap_4
XFILLER_37_354 vdd vss gf180mcu_fd_sc_mcu7t5v0__fill_1
XFILLER_20_243 vdd vss gf180mcu_fd_sc_mcu7t5v0__fillcap_4
XFILLER_14_1244 vdd vss gf180mcu_fd_sc_mcu7t5v0__fillcap_32
XFILLER_0_648 vdd vss gf180mcu_fd_sc_mcu7t5v0__fill_2
XFILLER_0_626 vdd vss gf180mcu_fd_sc_mcu7t5v0__fillcap_4
XFILLER_0_615 vdd vss gf180mcu_fd_sc_mcu7t5v0__fill_1
XFILLER_28_321 vdd vss gf180mcu_fd_sc_mcu7t5v0__fillcap_64
XFILLER_16_527 vdd vss gf180mcu_fd_sc_mcu7t5v0__fillcap_4
XFILLER_12_744 vdd vss gf180mcu_fd_sc_mcu7t5v0__fill_1
X_113_ _038_ net102 vdd vss gf180mcu_fd_sc_mcu7t5v0__clkbuf_1
XTAP_508 vdd vss gf180mcu_fd_sc_mcu7t5v0__filltie
XTAP_519 vdd vss gf180mcu_fd_sc_mcu7t5v0__filltie
X_044_ net20 net52 _041_ _000_ vdd vss gf180mcu_fd_sc_mcu7t5v0__mux2_2
XFILLER_4_976 vdd vss gf180mcu_fd_sc_mcu7t5v0__fillcap_4
XFILLER_19_354 vdd vss gf180mcu_fd_sc_mcu7t5v0__fill_1
XFILLER_37_1277 vdd vss gf180mcu_fd_sc_mcu7t5v0__fill_1
XFILLER_35_847 vdd vss gf180mcu_fd_sc_mcu7t5v0__fillcap_4
XFILLER_25_357 vdd vss gf180mcu_fd_sc_mcu7t5v0__fillcap_64
XFILLER_20_1292 vdd vss gf180mcu_fd_sc_mcu7t5v0__fill_2
XFILLER_1_90 vdd vss gf180mcu_fd_sc_mcu7t5v0__fillcap_8
XFILLER_21_563 vdd vss gf180mcu_fd_sc_mcu7t5v0__fillcap_4
XFILLER_0_401 vdd vss gf180mcu_fd_sc_mcu7t5v0__fillcap_4
XFILLER_1_913 vdd vss gf180mcu_fd_sc_mcu7t5v0__fill_2
XFILLER_29_641 vdd vss gf180mcu_fd_sc_mcu7t5v0__fillcap_64
XFILLER_0_489 vdd vss gf180mcu_fd_sc_mcu7t5v0__fill_1
XFILLER_21_1067 vdd vss gf180mcu_fd_sc_mcu7t5v0__fillcap_64
XFILLER_17_847 vdd vss gf180mcu_fd_sc_mcu7t5v0__fillcap_4
XFILLER_8_534 vdd vss gf180mcu_fd_sc_mcu7t5v0__fillcap_64
XTAP_349 vdd vss gf180mcu_fd_sc_mcu7t5v0__filltie
XTAP_338 vdd vss gf180mcu_fd_sc_mcu7t5v0__filltie
XTAP_327 vdd vss gf180mcu_fd_sc_mcu7t5v0__filltie
XTAP_316 vdd vss gf180mcu_fd_sc_mcu7t5v0__filltie
XTAP_305 vdd vss gf180mcu_fd_sc_mcu7t5v0__filltie
XFILLER_3_283 vdd vss gf180mcu_fd_sc_mcu7t5v0__fill_1
XFILLER_4_740 vdd vss gf180mcu_fd_sc_mcu7t5v0__fillcap_4
XFILLER_6_1028 vdd vss gf180mcu_fd_sc_mcu7t5v0__fill_1
XFILLER_34_176 vdd vss gf180mcu_fd_sc_mcu7t5v0__fill_1
XTAP_894 vdd vss gf180mcu_fd_sc_mcu7t5v0__filltie
XTAP_883 vdd vss gf180mcu_fd_sc_mcu7t5v0__filltie
XTAP_872 vdd vss gf180mcu_fd_sc_mcu7t5v0__filltie
XTAP_861 vdd vss gf180mcu_fd_sc_mcu7t5v0__filltie
XTAP_850 vdd vss gf180mcu_fd_sc_mcu7t5v0__filltie
XFILLER_38_460 vdd vss gf180mcu_fd_sc_mcu7t5v0__fill_1
XFILLER_15_66 vdd vss gf180mcu_fd_sc_mcu7t5v0__fillcap_4
XANTENNA_input11_I csb vdd vss gf180mcu_fd_sc_mcu7t5v0__antenna
XFILLER_40_179 vdd vss gf180mcu_fd_sc_mcu7t5v0__fillcap_64
Xoutput98 net98 dout[11] vdd vss gf180mcu_fd_sc_mcu7t5v0__clkbuf_4
Xoutput87 net87 addr_mem1[2] vdd vss gf180mcu_fd_sc_mcu7t5v0__clkbuf_4
Xoutput76 net76 addr_mem0[0] vdd vss gf180mcu_fd_sc_mcu7t5v0__clkbuf_4
XFILLER_7_1304 vdd vss gf180mcu_fd_sc_mcu7t5v0__fill_2
XFILLER_32_669 vdd vss gf180mcu_fd_sc_mcu7t5v0__fillcap_4
XFILLER_16_176 vdd vss gf180mcu_fd_sc_mcu7t5v0__fill_1
XFILLER_9_854 vdd vss gf180mcu_fd_sc_mcu7t5v0__fillcap_64
XTAP_102 vdd vss gf180mcu_fd_sc_mcu7t5v0__filltie
XTAP_124 vdd vss gf180mcu_fd_sc_mcu7t5v0__filltie
XTAP_135 vdd vss gf180mcu_fd_sc_mcu7t5v0__filltie
XTAP_113 vdd vss gf180mcu_fd_sc_mcu7t5v0__filltie
XANTENNA_input3_I addr[2] vdd vss gf180mcu_fd_sc_mcu7t5v0__antenna
XTAP_146 vdd vss gf180mcu_fd_sc_mcu7t5v0__filltie
XTAP_157 vdd vss gf180mcu_fd_sc_mcu7t5v0__filltie
XTAP_168 vdd vss gf180mcu_fd_sc_mcu7t5v0__filltie
XTAP_179 vdd vss gf180mcu_fd_sc_mcu7t5v0__filltie
XFILLER_39_279 vdd vss gf180mcu_fd_sc_mcu7t5v0__fillcap_4
XFILLER_36_953 vdd vss gf180mcu_fd_sc_mcu7t5v0__fillcap_4
XFILLER_35_496 vdd vss gf180mcu_fd_sc_mcu7t5v0__fill_1
XFILLER_22_179 vdd vss gf180mcu_fd_sc_mcu7t5v0__fillcap_64
XANTENNA_input59_I dout_mem1[23] vdd vss gf180mcu_fd_sc_mcu7t5v0__antenna
XFILLER_39_780 vdd vss gf180mcu_fd_sc_mcu7t5v0__fill_1
XTAP_691 vdd vss gf180mcu_fd_sc_mcu7t5v0__filltie
XTAP_680 vdd vss gf180mcu_fd_sc_mcu7t5v0__filltie
XFILLER_22_1173 vdd vss gf180mcu_fd_sc_mcu7t5v0__fillcap_64
XFILLER_42_912 vdd vss gf180mcu_fd_sc_mcu7t5v0__fillcap_32
XFILLER_41_499 vdd vss gf180mcu_fd_sc_mcu7t5v0__fillcap_64
XFILLER_26_463 vdd vss gf180mcu_fd_sc_mcu7t5v0__fillcap_64
XFILLER_14_669 vdd vss gf180mcu_fd_sc_mcu7t5v0__fillcap_4
XFILLER_33_1280 vdd vss gf180mcu_fd_sc_mcu7t5v0__fillcap_8
XFILLER_1_562 vdd vss gf180mcu_fd_sc_mcu7t5v0__fillcap_4
XFILLER_18_953 vdd vss gf180mcu_fd_sc_mcu7t5v0__fillcap_4
XFILLER_17_496 vdd vss gf180mcu_fd_sc_mcu7t5v0__fill_1
XFILLER_34_1099 vdd vss gf180mcu_fd_sc_mcu7t5v0__fill_1
XFILLER_33_989 vdd vss gf180mcu_fd_sc_mcu7t5v0__fillcap_4
XFILLER_8_172 vdd vss gf180mcu_fd_sc_mcu7t5v0__fillcap_4
XFILLER_23_499 vdd vss gf180mcu_fd_sc_mcu7t5v0__fillcap_64
XFILLER_10_105 vdd vss gf180mcu_fd_sc_mcu7t5v0__fill_1
XFILLER_12_34 vdd vss gf180mcu_fd_sc_mcu7t5v0__fill_1
XFILLER_33_208 vdd vss gf180mcu_fd_sc_mcu7t5v0__fillcap_4
XFILLER_27_783 vdd vss gf180mcu_fd_sc_mcu7t5v0__fillcap_64
XFILLER_2_1020 vdd vss gf180mcu_fd_sc_mcu7t5v0__fill_2
XFILLER_2_1031 vdd vss gf180mcu_fd_sc_mcu7t5v0__fill_1
XFILLER_2_1064 vdd vss gf180mcu_fd_sc_mcu7t5v0__fillcap_4
XFILLER_2_1086 vdd vss gf180mcu_fd_sc_mcu7t5v0__fillcap_4
XFILLER_31_1206 vdd vss gf180mcu_fd_sc_mcu7t5v0__fill_1
XFILLER_18_1028 vdd vss gf180mcu_fd_sc_mcu7t5v0__fill_1
XFILLER_15_989 vdd vss gf180mcu_fd_sc_mcu7t5v0__fillcap_4
XFILLER_29_1135 vdd vss gf180mcu_fd_sc_mcu7t5v0__fill_1
XFILLER_6_676 vdd vss gf180mcu_fd_sc_mcu7t5v0__fillcap_64
XFILLER_1_381 vdd vss gf180mcu_fd_sc_mcu7t5v0__fill_2
XFILLER_25_709 vdd vss gf180mcu_fd_sc_mcu7t5v0__fill_1
XFILLER_9_492 vdd vss gf180mcu_fd_sc_mcu7t5v0__fillcap_4
XFILLER_15_208 vdd vss gf180mcu_fd_sc_mcu7t5v0__fillcap_4
XFILLER_23_66 vdd vss gf180mcu_fd_sc_mcu7t5v0__fillcap_4
XFILLER_11_425 vdd vss gf180mcu_fd_sc_mcu7t5v0__fill_1
XFILLER_2_101 vdd vss gf180mcu_fd_sc_mcu7t5v0__fillcap_4
X_060_ _008_ net112 vdd vss gf180mcu_fd_sc_mcu7t5v0__clkbuf_1
XFILLER_4_1137 vdd vss gf180mcu_fd_sc_mcu7t5v0__fillcap_4
XFILLER_0_37 vdd vss gf180mcu_fd_sc_mcu7t5v0__fill_1
XFILLER_42_594 vdd vss gf180mcu_fd_sc_mcu7t5v0__fill_1
XFILLER_29_2 vdd vss gf180mcu_fd_sc_mcu7t5v0__fillcap_64
XFILLER_2_690 vdd vss gf180mcu_fd_sc_mcu7t5v0__fillcap_4
XFILLER_7_996 vdd vss gf180mcu_fd_sc_mcu7t5v0__fillcap_64
XFILLER_42_1154 vdd vss gf180mcu_fd_sc_mcu7t5v0__fill_1
XFILLER_38_889 vdd vss gf180mcu_fd_sc_mcu7t5v0__fillcap_64
XFILLER_21_712 vdd vss gf180mcu_fd_sc_mcu7t5v0__fillcap_64
XANTENNA_input41_I dout_mem0[7] vdd vss gf180mcu_fd_sc_mcu7t5v0__antenna
XFILLER_32_1312 vdd vss gf180mcu_fd_sc_mcu7t5v0__fill_1
X_112_ net18 net50 _035_ _038_ vdd vss gf180mcu_fd_sc_mcu7t5v0__mux2_2
X_043_ _040_ _041_ vdd vss gf180mcu_fd_sc_mcu7t5v0__buf_2
XFILLER_7_215 vdd vss gf180mcu_fd_sc_mcu7t5v0__fillcap_64
XTAP_509 vdd vss gf180mcu_fd_sc_mcu7t5v0__filltie
XFILLER_3_421 vdd vss gf180mcu_fd_sc_mcu7t5v0__fillcap_4
XFILLER_38_108 vdd vss gf180mcu_fd_sc_mcu7t5v0__fillcap_64
XFILLER_34_314 vdd vss gf180mcu_fd_sc_mcu7t5v0__fillcap_4
XFILLER_30_531 vdd vss gf180mcu_fd_sc_mcu7t5v0__fill_1
XFILLER_37_141 vdd vss gf180mcu_fd_sc_mcu7t5v0__fill_1
XFILLER_26_815 vdd vss gf180mcu_fd_sc_mcu7t5v0__fill_1
XFILLER_14_1031 vdd vss gf180mcu_fd_sc_mcu7t5v0__fillcap_64
XFILLER_20_34 vdd vss gf180mcu_fd_sc_mcu7t5v0__fill_1
XFILLER_0_446 vdd vss gf180mcu_fd_sc_mcu7t5v0__fillcap_4
XFILLER_0_435 vdd vss gf180mcu_fd_sc_mcu7t5v0__fill_1
XFILLER_0_424 vdd vss gf180mcu_fd_sc_mcu7t5v0__fill_1
XFILLER_1_925 vdd vss gf180mcu_fd_sc_mcu7t5v0__fill_1
XFILLER_1_958 vdd vss gf180mcu_fd_sc_mcu7t5v0__fill_2
XFILLER_16_314 vdd vss gf180mcu_fd_sc_mcu7t5v0__fillcap_4
XFILLER_0_468 vdd vss gf180mcu_fd_sc_mcu7t5v0__fill_2
XFILLER_0_457 vdd vss gf180mcu_fd_sc_mcu7t5v0__fill_1
XFILLER_32_818 vdd vss gf180mcu_fd_sc_mcu7t5v0__fillcap_64
XFILLER_12_531 vdd vss gf180mcu_fd_sc_mcu7t5v0__fill_1
XFILLER_39_428 vdd vss gf180mcu_fd_sc_mcu7t5v0__fillcap_64
XTAP_339 vdd vss gf180mcu_fd_sc_mcu7t5v0__filltie
XTAP_328 vdd vss gf180mcu_fd_sc_mcu7t5v0__filltie
XTAP_317 vdd vss gf180mcu_fd_sc_mcu7t5v0__filltie
XTAP_306 vdd vss gf180mcu_fd_sc_mcu7t5v0__filltie
XFILLER_35_634 vdd vss gf180mcu_fd_sc_mcu7t5v0__fillcap_4
XFILLER_19_141 vdd vss gf180mcu_fd_sc_mcu7t5v0__fill_1
XFILLER_37_1064 vdd vss gf180mcu_fd_sc_mcu7t5v0__fill_1
XFILLER_31_851 vdd vss gf180mcu_fd_sc_mcu7t5v0__fill_1
XTAP_895 vdd vss gf180mcu_fd_sc_mcu7t5v0__filltie
XTAP_884 vdd vss gf180mcu_fd_sc_mcu7t5v0__filltie
XTAP_873 vdd vss gf180mcu_fd_sc_mcu7t5v0__filltie
XTAP_862 vdd vss gf180mcu_fd_sc_mcu7t5v0__filltie
XTAP_851 vdd vss gf180mcu_fd_sc_mcu7t5v0__filltie
XTAP_840 vdd vss gf180mcu_fd_sc_mcu7t5v0__filltie
XFILLER_25_144 vdd vss gf180mcu_fd_sc_mcu7t5v0__fillcap_64
XFILLER_14_818 vdd vss gf180mcu_fd_sc_mcu7t5v0__fillcap_64
XFILLER_0_1173 vdd vss gf180mcu_fd_sc_mcu7t5v0__fill_2
XFILLER_31_66 vdd vss gf180mcu_fd_sc_mcu7t5v0__fillcap_4
XFILLER_21_350 vdd vss gf180mcu_fd_sc_mcu7t5v0__fillcap_4
XFILLER_27_1288 vdd vss gf180mcu_fd_sc_mcu7t5v0__fillcap_4
XFILLER_27_1277 vdd vss gf180mcu_fd_sc_mcu7t5v0__fill_1
Xoutput99 net99 dout[12] vdd vss gf180mcu_fd_sc_mcu7t5v0__clkbuf_4
XFILLER_1_777 vdd vss gf180mcu_fd_sc_mcu7t5v0__fillcap_4
Xoutput88 net88 addr_mem1[3] vdd vss gf180mcu_fd_sc_mcu7t5v0__clkbuf_4
XFILLER_0_254 vdd vss gf180mcu_fd_sc_mcu7t5v0__fill_2
Xoutput77 net77 addr_mem0[1] vdd vss gf180mcu_fd_sc_mcu7t5v0__clkbuf_4
XFILLER_0_221 vdd vss gf180mcu_fd_sc_mcu7t5v0__fillcap_4
XFILLER_17_634 vdd vss gf180mcu_fd_sc_mcu7t5v0__fillcap_4
XFILLER_5_1051 vdd vss gf180mcu_fd_sc_mcu7t5v0__fillcap_8
XFILLER_34_1237 vdd vss gf180mcu_fd_sc_mcu7t5v0__fillcap_4
XFILLER_13_851 vdd vss gf180mcu_fd_sc_mcu7t5v0__fill_1
XFILLER_8_321 vdd vss gf180mcu_fd_sc_mcu7t5v0__fillcap_64
XFILLER_10_1292 vdd vss gf180mcu_fd_sc_mcu7t5v0__fill_2
XTAP_103 vdd vss gf180mcu_fd_sc_mcu7t5v0__filltie
XTAP_114 vdd vss gf180mcu_fd_sc_mcu7t5v0__filltie
XFILLER_11_2 vdd vss gf180mcu_fd_sc_mcu7t5v0__fillcap_64
XTAP_125 vdd vss gf180mcu_fd_sc_mcu7t5v0__filltie
XTAP_136 vdd vss gf180mcu_fd_sc_mcu7t5v0__filltie
XTAP_147 vdd vss gf180mcu_fd_sc_mcu7t5v0__filltie
XTAP_158 vdd vss gf180mcu_fd_sc_mcu7t5v0__filltie
XTAP_169 vdd vss gf180mcu_fd_sc_mcu7t5v0__filltie
XTAP_670 vdd vss gf180mcu_fd_sc_mcu7t5v0__filltie
XFILLER_11_1067 vdd vss gf180mcu_fd_sc_mcu7t5v0__fillcap_64
XANTENNA_output110_I net110 vdd vss gf180mcu_fd_sc_mcu7t5v0__antenna
XTAP_692 vdd vss gf180mcu_fd_sc_mcu7t5v0__filltie
XTAP_681 vdd vss gf180mcu_fd_sc_mcu7t5v0__filltie
XFILLER_2_1224 vdd vss gf180mcu_fd_sc_mcu7t5v0__fill_1
XFILLER_2_1235 vdd vss gf180mcu_fd_sc_mcu7t5v0__fillcap_4
XFILLER_2_1268 vdd vss gf180mcu_fd_sc_mcu7t5v0__fill_2
XFILLER_42_979 vdd vss gf180mcu_fd_sc_mcu7t5v0__fill_1
XFILLER_33_1292 vdd vss gf180mcu_fd_sc_mcu7t5v0__fill_2
XFILLER_5_357 vdd vss gf180mcu_fd_sc_mcu7t5v0__fillcap_64
XFILLER_40_1241 vdd vss gf180mcu_fd_sc_mcu7t5v0__fill_1
XFILLER_1_596 vdd vss gf180mcu_fd_sc_mcu7t5v0__fillcap_32
XFILLER_1_530 vdd vss gf180mcu_fd_sc_mcu7t5v0__fillcap_32
XFILLER_7_1135 vdd vss gf180mcu_fd_sc_mcu7t5v0__fill_1
XFILLER_40_1296 vdd vss gf180mcu_fd_sc_mcu7t5v0__fill_2
XFILLER_32_456 vdd vss gf180mcu_fd_sc_mcu7t5v0__fillcap_4
XFILLER_38_1170 vdd vss gf180mcu_fd_sc_mcu7t5v0__fill_1
XFILLER_9_641 vdd vss gf180mcu_fd_sc_mcu7t5v0__fillcap_64
XFILLER_42_209 vdd vss gf180mcu_fd_sc_mcu7t5v0__fill_1
XFILLER_36_740 vdd vss gf180mcu_fd_sc_mcu7t5v0__fillcap_4
XFILLER_35_283 vdd vss gf180mcu_fd_sc_mcu7t5v0__fill_1
XFILLER_24_957 vdd vss gf180mcu_fd_sc_mcu7t5v0__fill_1
XANTENNA_input71_I dout_mem1[5] vdd vss gf180mcu_fd_sc_mcu7t5v0__antenna
XFILLER_26_250 vdd vss gf180mcu_fd_sc_mcu7t5v0__fillcap_64
XFILLER_14_456 vdd vss gf180mcu_fd_sc_mcu7t5v0__fillcap_4
XFILLER_41_286 vdd vss gf180mcu_fd_sc_mcu7t5v0__fillcap_64
XFILLER_10_673 vdd vss gf180mcu_fd_sc_mcu7t5v0__fill_1
XFILLER_2_850 vdd vss gf180mcu_fd_sc_mcu7t5v0__fillcap_8
XFILLER_18_740 vdd vss gf180mcu_fd_sc_mcu7t5v0__fillcap_4
XFILLER_33_776 vdd vss gf180mcu_fd_sc_mcu7t5v0__fillcap_4
XFILLER_17_283 vdd vss gf180mcu_fd_sc_mcu7t5v0__fill_1
XFILLER_12_1173 vdd vss gf180mcu_fd_sc_mcu7t5v0__fillcap_64
XFILLER_23_1280 vdd vss gf180mcu_fd_sc_mcu7t5v0__fillcap_8
XFILLER_23_286 vdd vss gf180mcu_fd_sc_mcu7t5v0__fillcap_64
XFILLER_20_960 vdd vss gf180mcu_fd_sc_mcu7t5v0__fillcap_64
XFILLER_2_179 vdd vss gf180mcu_fd_sc_mcu7t5v0__fillcap_64
XFILLER_24_1099 vdd vss gf180mcu_fd_sc_mcu7t5v0__fill_1
XFILLER_8_1241 vdd vss gf180mcu_fd_sc_mcu7t5v0__fill_1
XFILLER_42_562 vdd vss gf180mcu_fd_sc_mcu7t5v0__fillcap_32
XFILLER_27_570 vdd vss gf180mcu_fd_sc_mcu7t5v0__fillcap_64
XFILLER_15_776 vdd vss gf180mcu_fd_sc_mcu7t5v0__fillcap_4
XFILLER_11_993 vdd vss gf180mcu_fd_sc_mcu7t5v0__fill_1
XFILLER_6_463 vdd vss gf180mcu_fd_sc_mcu7t5v0__fillcap_64
XFILLER_42_1122 vdd vss gf180mcu_fd_sc_mcu7t5v0__fillcap_32
XFILLER_21_1206 vdd vss gf180mcu_fd_sc_mcu7t5v0__fill_1
XFILLER_18_34 vdd vss gf180mcu_fd_sc_mcu7t5v0__fill_1
XANTENNA_input34_I dout_mem0[2] vdd vss gf180mcu_fd_sc_mcu7t5v0__antenna
XFILLER_28_389 vdd vss gf180mcu_fd_sc_mcu7t5v0__fill_1
XFILLER_19_1135 vdd vss gf180mcu_fd_sc_mcu7t5v0__fill_1
XFILLER_11_212 vdd vss gf180mcu_fd_sc_mcu7t5v0__fill_1
XFILLER_3_1171 vdd vss gf180mcu_fd_sc_mcu7t5v0__fill_2
X_111_ _037_ net101 vdd vss gf180mcu_fd_sc_mcu7t5v0__clkbuf_1
X_042_ net10 _040_ vdd vss gf180mcu_fd_sc_mcu7t5v0__clkbuf_1
XFILLER_3_499 vdd vss gf180mcu_fd_sc_mcu7t5v0__fillcap_64
XFILLER_4_945 vdd vss gf180mcu_fd_sc_mcu7t5v0__fillcap_8
XFILLER_37_1202 vdd vss gf180mcu_fd_sc_mcu7t5v0__fillcap_4
XFILLER_30_598 vdd vss gf180mcu_fd_sc_mcu7t5v0__fillcap_4
XFILLER_41_2 vdd vss gf180mcu_fd_sc_mcu7t5v0__fillcap_64
XFILLER_7_783 vdd vss gf180mcu_fd_sc_mcu7t5v0__fillcap_64
XFILLER_40_318 vdd vss gf180mcu_fd_sc_mcu7t5v0__fill_1
XFILLER_38_676 vdd vss gf180mcu_fd_sc_mcu7t5v0__fillcap_64
XFILLER_34_882 vdd vss gf180mcu_fd_sc_mcu7t5v0__fillcap_4
XFILLER_1_70 vdd vss gf180mcu_fd_sc_mcu7t5v0__fill_1
XFILLER_5_709 vdd vss gf180mcu_fd_sc_mcu7t5v0__fill_1
XFILLER_29_66 vdd vss gf180mcu_fd_sc_mcu7t5v0__fillcap_4
XFILLER_5_1277 vdd vss gf180mcu_fd_sc_mcu7t5v0__fill_1
XFILLER_24_392 vdd vss gf180mcu_fd_sc_mcu7t5v0__fillcap_64
XFILLER_12_598 vdd vss gf180mcu_fd_sc_mcu7t5v0__fillcap_4
XFILLER_6_37 vdd vss gf180mcu_fd_sc_mcu7t5v0__fillcap_64
XTAP_329 vdd vss gf180mcu_fd_sc_mcu7t5v0__filltie
XTAP_318 vdd vss gf180mcu_fd_sc_mcu7t5v0__filltie
XTAP_307 vdd vss gf180mcu_fd_sc_mcu7t5v0__filltie
XFILLER_34_101 vdd vss gf180mcu_fd_sc_mcu7t5v0__fillcap_4
XFILLER_22_318 vdd vss gf180mcu_fd_sc_mcu7t5v0__fill_1
XFILLER_16_882 vdd vss gf180mcu_fd_sc_mcu7t5v0__fillcap_4
XTAP_852 vdd vss gf180mcu_fd_sc_mcu7t5v0__filltie
XTAP_841 vdd vss gf180mcu_fd_sc_mcu7t5v0__filltie
XTAP_830 vdd vss gf180mcu_fd_sc_mcu7t5v0__filltie
XTAP_896 vdd vss gf180mcu_fd_sc_mcu7t5v0__filltie
XTAP_885 vdd vss gf180mcu_fd_sc_mcu7t5v0__filltie
XTAP_874 vdd vss gf180mcu_fd_sc_mcu7t5v0__filltie
XTAP_863 vdd vss gf180mcu_fd_sc_mcu7t5v0__filltie
XFILLER_39_996 vdd vss gf180mcu_fd_sc_mcu7t5v0__fillcap_64
XFILLER_26_602 vdd vss gf180mcu_fd_sc_mcu7t5v0__fill_1
XFILLER_22_1312 vdd vss gf180mcu_fd_sc_mcu7t5v0__fill_1
XFILLER_41_638 vdd vss gf180mcu_fd_sc_mcu7t5v0__fill_1
XFILLER_0_1152 vdd vss gf180mcu_fd_sc_mcu7t5v0__fill_2
Xoutput89 net89 addr_mem1[4] vdd vss gf180mcu_fd_sc_mcu7t5v0__clkbuf_4
XFILLER_1_723 vdd vss gf180mcu_fd_sc_mcu7t5v0__fill_2
XFILLER_1_712 vdd vss gf180mcu_fd_sc_mcu7t5v0__fill_1
XFILLER_0_288 vdd vss gf180mcu_fd_sc_mcu7t5v0__fill_2
XFILLER_0_266 vdd vss gf180mcu_fd_sc_mcu7t5v0__fillcap_4
XFILLER_0_244 vdd vss gf180mcu_fd_sc_mcu7t5v0__fill_1
Xoutput78 net78 addr_mem0[2] vdd vss gf180mcu_fd_sc_mcu7t5v0__clkbuf_4
XFILLER_32_605 vdd vss gf180mcu_fd_sc_mcu7t5v0__fillcap_64
XFILLER_16_101 vdd vss gf180mcu_fd_sc_mcu7t5v0__fillcap_4
XFILLER_5_1063 vdd vss gf180mcu_fd_sc_mcu7t5v0__fill_2
XFILLER_31_137 vdd vss gf180mcu_fd_sc_mcu7t5v0__fillcap_4
XTAP_104 vdd vss gf180mcu_fd_sc_mcu7t5v0__filltie
XTAP_126 vdd vss gf180mcu_fd_sc_mcu7t5v0__filltie
XTAP_115 vdd vss gf180mcu_fd_sc_mcu7t5v0__filltie
XTAP_137 vdd vss gf180mcu_fd_sc_mcu7t5v0__filltie
XTAP_148 vdd vss gf180mcu_fd_sc_mcu7t5v0__filltie
XFILLER_41_1209 vdd vss gf180mcu_fd_sc_mcu7t5v0__fillcap_64
XFILLER_39_215 vdd vss gf180mcu_fd_sc_mcu7t5v0__fillcap_64
XFILLER_35_421 vdd vss gf180mcu_fd_sc_mcu7t5v0__fillcap_4
XTAP_159 vdd vss gf180mcu_fd_sc_mcu7t5v0__filltie
XFILLER_39_1138 vdd vss gf180mcu_fd_sc_mcu7t5v0__fillcap_64
XFILLER_23_638 vdd vss gf180mcu_fd_sc_mcu7t5v0__fill_1
XTAP_693 vdd vss gf180mcu_fd_sc_mcu7t5v0__filltie
XTAP_682 vdd vss gf180mcu_fd_sc_mcu7t5v0__filltie
XTAP_671 vdd vss gf180mcu_fd_sc_mcu7t5v0__filltie
XTAP_660 vdd vss gf180mcu_fd_sc_mcu7t5v0__filltie
XFILLER_42_947 vdd vss gf180mcu_fd_sc_mcu7t5v0__fillcap_32
XANTENNA_output103_I net103 vdd vss gf180mcu_fd_sc_mcu7t5v0__antenna
XFILLER_27_922 vdd vss gf180mcu_fd_sc_mcu7t5v0__fill_1
XFILLER_26_34 vdd vss gf180mcu_fd_sc_mcu7t5v0__fill_1
XFILLER_14_605 vdd vss gf180mcu_fd_sc_mcu7t5v0__fillcap_64
XFILLER_13_137 vdd vss gf180mcu_fd_sc_mcu7t5v0__fillcap_4
XFILLER_10_866 vdd vss gf180mcu_fd_sc_mcu7t5v0__fillcap_8
XFILLER_10_811 vdd vss gf180mcu_fd_sc_mcu7t5v0__fillcap_4
XFILLER_6_815 vdd vss gf180mcu_fd_sc_mcu7t5v0__fill_1
XFILLER_27_1064 vdd vss gf180mcu_fd_sc_mcu7t5v0__fill_1