* NGSPICE file created from wb_mux.ext - technology: gf180mcuC

* Black-box entry subcircuit for gf180mcu_fd_sc_mcu7t5v0__filltie abstract view
.subckt gf180mcu_fd_sc_mcu7t5v0__filltie VDD VSS
.ends

* Black-box entry subcircuit for gf180mcu_fd_sc_mcu7t5v0__fillcap_16 abstract view
.subckt gf180mcu_fd_sc_mcu7t5v0__fillcap_16 VDD VSS
.ends

* Black-box entry subcircuit for gf180mcu_fd_sc_mcu7t5v0__fillcap_64 abstract view
.subckt gf180mcu_fd_sc_mcu7t5v0__fillcap_64 VDD VSS
.ends

* Black-box entry subcircuit for gf180mcu_fd_sc_mcu7t5v0__fillcap_32 abstract view
.subckt gf180mcu_fd_sc_mcu7t5v0__fillcap_32 VDD VSS
.ends

* Black-box entry subcircuit for gf180mcu_fd_sc_mcu7t5v0__fill_1 abstract view
.subckt gf180mcu_fd_sc_mcu7t5v0__fill_1 VDD VSS
.ends

* Black-box entry subcircuit for gf180mcu_fd_sc_mcu7t5v0__antenna abstract view
.subckt gf180mcu_fd_sc_mcu7t5v0__antenna I VDD VSS
.ends

* Black-box entry subcircuit for gf180mcu_fd_sc_mcu7t5v0__fillcap_4 abstract view
.subckt gf180mcu_fd_sc_mcu7t5v0__fillcap_4 VDD VSS
.ends

* Black-box entry subcircuit for gf180mcu_fd_sc_mcu7t5v0__fill_2 abstract view
.subckt gf180mcu_fd_sc_mcu7t5v0__fill_2 VDD VSS
.ends

* Black-box entry subcircuit for gf180mcu_fd_sc_mcu7t5v0__clkbuf_1 abstract view
.subckt gf180mcu_fd_sc_mcu7t5v0__clkbuf_1 I Z VDD VSS
.ends

* Black-box entry subcircuit for gf180mcu_fd_sc_mcu7t5v0__fillcap_8 abstract view
.subckt gf180mcu_fd_sc_mcu7t5v0__fillcap_8 VDD VSS
.ends

* Black-box entry subcircuit for gf180mcu_fd_sc_mcu7t5v0__clkbuf_3 abstract view
.subckt gf180mcu_fd_sc_mcu7t5v0__clkbuf_3 I Z VDD VSS
.ends

* Black-box entry subcircuit for gf180mcu_fd_sc_mcu7t5v0__clkinv_1 abstract view
.subckt gf180mcu_fd_sc_mcu7t5v0__clkinv_1 I ZN VDD VSS
.ends

* Black-box entry subcircuit for gf180mcu_fd_sc_mcu7t5v0__oai22_1 abstract view
.subckt gf180mcu_fd_sc_mcu7t5v0__oai22_1 A1 A2 B1 B2 ZN VDD VSS
.ends

* Black-box entry subcircuit for gf180mcu_fd_sc_mcu7t5v0__dlyb_1 abstract view
.subckt gf180mcu_fd_sc_mcu7t5v0__dlyb_1 I Z VDD VSS
.ends

* Black-box entry subcircuit for gf180mcu_fd_sc_mcu7t5v0__endcap abstract view
.subckt gf180mcu_fd_sc_mcu7t5v0__endcap VDD VSS
.ends

* Black-box entry subcircuit for gf180mcu_fd_sc_mcu7t5v0__nand4_1 abstract view
.subckt gf180mcu_fd_sc_mcu7t5v0__nand4_1 A1 A2 A3 A4 ZN VDD VSS
.ends

* Black-box entry subcircuit for gf180mcu_fd_sc_mcu7t5v0__nor2_1 abstract view
.subckt gf180mcu_fd_sc_mcu7t5v0__nor2_1 A1 A2 ZN VDD VSS
.ends

* Black-box entry subcircuit for gf180mcu_fd_sc_mcu7t5v0__nor3_1 abstract view
.subckt gf180mcu_fd_sc_mcu7t5v0__nor3_1 A1 A2 A3 ZN VDD VSS
.ends

* Black-box entry subcircuit for gf180mcu_fd_sc_mcu7t5v0__and2_1 abstract view
.subckt gf180mcu_fd_sc_mcu7t5v0__and2_1 A1 A2 Z VDD VSS
.ends

* Black-box entry subcircuit for gf180mcu_fd_sc_mcu7t5v0__dlyc_1 abstract view
.subckt gf180mcu_fd_sc_mcu7t5v0__dlyc_1 I Z VDD VSS
.ends

* Black-box entry subcircuit for gf180mcu_fd_sc_mcu7t5v0__nor4_1 abstract view
.subckt gf180mcu_fd_sc_mcu7t5v0__nor4_1 A1 A2 A3 A4 ZN VDD VSS
.ends

* Black-box entry subcircuit for gf180mcu_fd_sc_mcu7t5v0__and4_1 abstract view
.subckt gf180mcu_fd_sc_mcu7t5v0__and4_1 A1 A2 A3 A4 Z VDD VSS
.ends

.subckt wb_mux io_wbs_ack io_wbs_ack_0 io_wbs_ack_1 io_wbs_adr[0] io_wbs_adr[10] io_wbs_adr[11]
+ io_wbs_adr[12] io_wbs_adr[13] io_wbs_adr[14] io_wbs_adr[15] io_wbs_adr[16] io_wbs_adr[17]
+ io_wbs_adr[18] io_wbs_adr[19] io_wbs_adr[1] io_wbs_adr[20] io_wbs_adr[21] io_wbs_adr[22]
+ io_wbs_adr[23] io_wbs_adr[24] io_wbs_adr[25] io_wbs_adr[26] io_wbs_adr[27] io_wbs_adr[28]
+ io_wbs_adr[29] io_wbs_adr[2] io_wbs_adr[30] io_wbs_adr[31] io_wbs_adr[3] io_wbs_adr[4]
+ io_wbs_adr[5] io_wbs_adr[6] io_wbs_adr[7] io_wbs_adr[8] io_wbs_adr[9] io_wbs_adr_0[0]
+ io_wbs_adr_0[10] io_wbs_adr_0[11] io_wbs_adr_0[12] io_wbs_adr_0[13] io_wbs_adr_0[14]
+ io_wbs_adr_0[15] io_wbs_adr_0[16] io_wbs_adr_0[17] io_wbs_adr_0[18] io_wbs_adr_0[19]
+ io_wbs_adr_0[1] io_wbs_adr_0[20] io_wbs_adr_0[21] io_wbs_adr_0[22] io_wbs_adr_0[23]
+ io_wbs_adr_0[24] io_wbs_adr_0[25] io_wbs_adr_0[26] io_wbs_adr_0[27] io_wbs_adr_0[28]
+ io_wbs_adr_0[29] io_wbs_adr_0[2] io_wbs_adr_0[30] io_wbs_adr_0[31] io_wbs_adr_0[3]
+ io_wbs_adr_0[4] io_wbs_adr_0[5] io_wbs_adr_0[6] io_wbs_adr_0[7] io_wbs_adr_0[8]
+ io_wbs_adr_0[9] io_wbs_adr_1[0] io_wbs_adr_1[10] io_wbs_adr_1[11] io_wbs_adr_1[12]
+ io_wbs_adr_1[13] io_wbs_adr_1[14] io_wbs_adr_1[15] io_wbs_adr_1[16] io_wbs_adr_1[17]
+ io_wbs_adr_1[18] io_wbs_adr_1[19] io_wbs_adr_1[1] io_wbs_adr_1[20] io_wbs_adr_1[21]
+ io_wbs_adr_1[22] io_wbs_adr_1[23] io_wbs_adr_1[24] io_wbs_adr_1[25] io_wbs_adr_1[26]
+ io_wbs_adr_1[27] io_wbs_adr_1[28] io_wbs_adr_1[29] io_wbs_adr_1[2] io_wbs_adr_1[30]
+ io_wbs_adr_1[31] io_wbs_adr_1[3] io_wbs_adr_1[4] io_wbs_adr_1[5] io_wbs_adr_1[6]
+ io_wbs_adr_1[7] io_wbs_adr_1[8] io_wbs_adr_1[9] io_wbs_cyc io_wbs_cyc_0 io_wbs_cyc_1
+ io_wbs_datrd[0] io_wbs_datrd[10] io_wbs_datrd[11] io_wbs_datrd[12] io_wbs_datrd[13]
+ io_wbs_datrd[14] io_wbs_datrd[15] io_wbs_datrd[16] io_wbs_datrd[17] io_wbs_datrd[18]
+ io_wbs_datrd[19] io_wbs_datrd[1] io_wbs_datrd[20] io_wbs_datrd[21] io_wbs_datrd[22]
+ io_wbs_datrd[23] io_wbs_datrd[24] io_wbs_datrd[25] io_wbs_datrd[26] io_wbs_datrd[27]
+ io_wbs_datrd[28] io_wbs_datrd[29] io_wbs_datrd[2] io_wbs_datrd[30] io_wbs_datrd[31]
+ io_wbs_datrd[3] io_wbs_datrd[4] io_wbs_datrd[5] io_wbs_datrd[6] io_wbs_datrd[7]
+ io_wbs_datrd[8] io_wbs_datrd[9] io_wbs_datrd_0[0] io_wbs_datrd_0[10] io_wbs_datrd_0[11]
+ io_wbs_datrd_0[12] io_wbs_datrd_0[13] io_wbs_datrd_0[14] io_wbs_datrd_0[15] io_wbs_datrd_0[16]
+ io_wbs_datrd_0[17] io_wbs_datrd_0[18] io_wbs_datrd_0[19] io_wbs_datrd_0[1] io_wbs_datrd_0[20]
+ io_wbs_datrd_0[21] io_wbs_datrd_0[22] io_wbs_datrd_0[23] io_wbs_datrd_0[24] io_wbs_datrd_0[25]
+ io_wbs_datrd_0[26] io_wbs_datrd_0[27] io_wbs_datrd_0[28] io_wbs_datrd_0[29] io_wbs_datrd_0[2]
+ io_wbs_datrd_0[30] io_wbs_datrd_0[31] io_wbs_datrd_0[3] io_wbs_datrd_0[4] io_wbs_datrd_0[5]
+ io_wbs_datrd_0[6] io_wbs_datrd_0[7] io_wbs_datrd_0[8] io_wbs_datrd_0[9] io_wbs_datrd_1[0]
+ io_wbs_datrd_1[10] io_wbs_datrd_1[11] io_wbs_datrd_1[12] io_wbs_datrd_1[13] io_wbs_datrd_1[14]
+ io_wbs_datrd_1[15] io_wbs_datrd_1[16] io_wbs_datrd_1[17] io_wbs_datrd_1[18] io_wbs_datrd_1[19]
+ io_wbs_datrd_1[1] io_wbs_datrd_1[20] io_wbs_datrd_1[21] io_wbs_datrd_1[22] io_wbs_datrd_1[23]
+ io_wbs_datrd_1[24] io_wbs_datrd_1[25] io_wbs_datrd_1[26] io_wbs_datrd_1[27] io_wbs_datrd_1[28]
+ io_wbs_datrd_1[29] io_wbs_datrd_1[2] io_wbs_datrd_1[30] io_wbs_datrd_1[31] io_wbs_datrd_1[3]
+ io_wbs_datrd_1[4] io_wbs_datrd_1[5] io_wbs_datrd_1[6] io_wbs_datrd_1[7] io_wbs_datrd_1[8]
+ io_wbs_datrd_1[9] io_wbs_datwr[0] io_wbs_datwr[10] io_wbs_datwr[11] io_wbs_datwr[12]
+ io_wbs_datwr[13] io_wbs_datwr[14] io_wbs_datwr[15] io_wbs_datwr[16] io_wbs_datwr[17]
+ io_wbs_datwr[18] io_wbs_datwr[19] io_wbs_datwr[1] io_wbs_datwr[20] io_wbs_datwr[21]
+ io_wbs_datwr[22] io_wbs_datwr[23] io_wbs_datwr[24] io_wbs_datwr[25] io_wbs_datwr[26]
+ io_wbs_datwr[27] io_wbs_datwr[28] io_wbs_datwr[29] io_wbs_datwr[2] io_wbs_datwr[30]
+ io_wbs_datwr[31] io_wbs_datwr[3] io_wbs_datwr[4] io_wbs_datwr[5] io_wbs_datwr[6]
+ io_wbs_datwr[7] io_wbs_datwr[8] io_wbs_datwr[9] io_wbs_datwr_0[0] io_wbs_datwr_0[10]
+ io_wbs_datwr_0[11] io_wbs_datwr_0[12] io_wbs_datwr_0[13] io_wbs_datwr_0[14] io_wbs_datwr_0[15]
+ io_wbs_datwr_0[16] io_wbs_datwr_0[17] io_wbs_datwr_0[18] io_wbs_datwr_0[19] io_wbs_datwr_0[1]
+ io_wbs_datwr_0[20] io_wbs_datwr_0[21] io_wbs_datwr_0[22] io_wbs_datwr_0[23] io_wbs_datwr_0[24]
+ io_wbs_datwr_0[25] io_wbs_datwr_0[26] io_wbs_datwr_0[27] io_wbs_datwr_0[28] io_wbs_datwr_0[29]
+ io_wbs_datwr_0[2] io_wbs_datwr_0[30] io_wbs_datwr_0[31] io_wbs_datwr_0[3] io_wbs_datwr_0[4]
+ io_wbs_datwr_0[5] io_wbs_datwr_0[6] io_wbs_datwr_0[7] io_wbs_datwr_0[8] io_wbs_datwr_0[9]
+ io_wbs_datwr_1[0] io_wbs_datwr_1[10] io_wbs_datwr_1[11] io_wbs_datwr_1[12] io_wbs_datwr_1[13]
+ io_wbs_datwr_1[14] io_wbs_datwr_1[15] io_wbs_datwr_1[16] io_wbs_datwr_1[17] io_wbs_datwr_1[18]
+ io_wbs_datwr_1[19] io_wbs_datwr_1[1] io_wbs_datwr_1[20] io_wbs_datwr_1[21] io_wbs_datwr_1[22]
+ io_wbs_datwr_1[23] io_wbs_datwr_1[24] io_wbs_datwr_1[25] io_wbs_datwr_1[26] io_wbs_datwr_1[27]
+ io_wbs_datwr_1[28] io_wbs_datwr_1[29] io_wbs_datwr_1[2] io_wbs_datwr_1[30] io_wbs_datwr_1[31]
+ io_wbs_datwr_1[3] io_wbs_datwr_1[4] io_wbs_datwr_1[5] io_wbs_datwr_1[6] io_wbs_datwr_1[7]
+ io_wbs_datwr_1[8] io_wbs_datwr_1[9] io_wbs_sel[0] io_wbs_sel[1] io_wbs_sel[2] io_wbs_sel[3]
+ io_wbs_sel_0[0] io_wbs_sel_0[1] io_wbs_sel_0[2] io_wbs_sel_0[3] io_wbs_sel_1[0]
+ io_wbs_sel_1[1] io_wbs_sel_1[2] io_wbs_sel_1[3] io_wbs_stb io_wbs_stb_0 io_wbs_stb_1
+ io_wbs_we io_wbs_we_0 io_wbs_we_1 vdd vss
XTAP_188 vdd vss gf180mcu_fd_sc_mcu7t5v0__filltie
XTAP_199 vdd vss gf180mcu_fd_sc_mcu7t5v0__filltie
XFILLER_67_542 vdd vss gf180mcu_fd_sc_mcu7t5v0__fillcap_16
XFILLER_27_428 vdd vss gf180mcu_fd_sc_mcu7t5v0__fillcap_64
XFILLER_82_534 vdd vss gf180mcu_fd_sc_mcu7t5v0__fillcap_32
XFILLER_54_247 vdd vss gf180mcu_fd_sc_mcu7t5v0__fill_1
XFILLER_82_578 vdd vss gf180mcu_fd_sc_mcu7t5v0__fill_1
XANTENNA_input108_I io_wbs_datwr[17] vdd vss gf180mcu_fd_sc_mcu7t5v0__antenna
XFILLER_23_634 vdd vss gf180mcu_fd_sc_mcu7t5v0__fillcap_4
XFILLER_52_29 vdd vss gf180mcu_fd_sc_mcu7t5v0__fillcap_4
XANTENNA__254__I net11 vdd vss gf180mcu_fd_sc_mcu7t5v0__antenna
XANTENNA_input73_I io_wbs_datrd_1[14] vdd vss gf180mcu_fd_sc_mcu7t5v0__antenna
XANTENNA__105__A4 net21 vdd vss gf180mcu_fd_sc_mcu7t5v0__antenna
XFILLER_89_144 vdd vss gf180mcu_fd_sc_mcu7t5v0__fillcap_64
XFILLER_2_549 vdd vss gf180mcu_fd_sc_mcu7t5v0__fill_2
XFILLER_77_37 vdd vss gf180mcu_fd_sc_mcu7t5v0__fillcap_32
XFILLER_58_531 vdd vss gf180mcu_fd_sc_mcu7t5v0__fill_1
XFILLER_85_350 vdd vss gf180mcu_fd_sc_mcu7t5v0__fillcap_4
XFILLER_73_512 vdd vss gf180mcu_fd_sc_mcu7t5v0__fillcap_4
XFILLER_73_523 vdd vss gf180mcu_fd_sc_mcu7t5v0__fillcap_4
XFILLER_93_69 vdd vss gf180mcu_fd_sc_mcu7t5v0__fill_1
XFILLER_14_645 vdd vss gf180mcu_fd_sc_mcu7t5v0__fillcap_4
XFILLER_13_144 vdd vss gf180mcu_fd_sc_mcu7t5v0__fillcap_64
X_363_ net123 net292 vdd vss gf180mcu_fd_sc_mcu7t5v0__clkbuf_1
X_294_ net20 net188 vdd vss gf180mcu_fd_sc_mcu7t5v0__clkbuf_1
XANTENNA__164__I net39 vdd vss gf180mcu_fd_sc_mcu7t5v0__antenna
XFILLER_5_354 vdd vss gf180mcu_fd_sc_mcu7t5v0__fill_1
XFILLER_3_34 vdd vss gf180mcu_fd_sc_mcu7t5v0__fill_2
XFILLER_3_23 vdd vss gf180mcu_fd_sc_mcu7t5v0__fill_1
XFILLER_3_89 vdd vss gf180mcu_fd_sc_mcu7t5v0__fillcap_4
XANTENNA__339__I net128 vdd vss gf180mcu_fd_sc_mcu7t5v0__antenna
XFILLER_64_534 vdd vss gf180mcu_fd_sc_mcu7t5v0__fillcap_64
XFILLER_36_247 vdd vss gf180mcu_fd_sc_mcu7t5v0__fill_1
XFILLER_36_258 vdd vss gf180mcu_fd_sc_mcu7t5v0__fill_2
XFILLER_17_472 vdd vss gf180mcu_fd_sc_mcu7t5v0__fill_2
XFILLER_20_637 vdd vss gf180mcu_fd_sc_mcu7t5v0__fillcap_8
XFILLER_80_2 vdd vss gf180mcu_fd_sc_mcu7t5v0__fill_1
XFILLER_87_637 vdd vss gf180mcu_fd_sc_mcu7t5v0__fill_2
XFILLER_67_350 vdd vss gf180mcu_fd_sc_mcu7t5v0__fillcap_4
XANTENNA__249__I net6 vdd vss gf180mcu_fd_sc_mcu7t5v0__antenna
XFILLER_55_567 vdd vss gf180mcu_fd_sc_mcu7t5v0__fill_1
XFILLER_50_250 vdd vss gf180mcu_fd_sc_mcu7t5v0__fillcap_64
XFILLER_12_21 vdd vss gf180mcu_fd_sc_mcu7t5v0__fillcap_8
XANTENNA_output277_I net277 vdd vss gf180mcu_fd_sc_mcu7t5v0__antenna
XFILLER_88_25 vdd vss gf180mcu_fd_sc_mcu7t5v0__fillcap_8
XFILLER_2_324 vdd vss gf180mcu_fd_sc_mcu7t5v0__fill_2
XFILLER_2_346 vdd vss gf180mcu_fd_sc_mcu7t5v0__fill_2
XFILLER_93_629 vdd vss gf180mcu_fd_sc_mcu7t5v0__fill_1
XFILLER_46_534 vdd vss gf180mcu_fd_sc_mcu7t5v0__fillcap_64
XFILLER_37_73 vdd vss gf180mcu_fd_sc_mcu7t5v0__fillcap_64
XFILLER_33_239 vdd vss gf180mcu_fd_sc_mcu7t5v0__fill_2
XFILLER_14_497 vdd vss gf180mcu_fd_sc_mcu7t5v0__fillcap_32
XFILLER_41_283 vdd vss gf180mcu_fd_sc_mcu7t5v0__fill_1
X_346_ net104 net273 vdd vss gf180mcu_fd_sc_mcu7t5v0__clkbuf_1
XFILLER_41_294 vdd vss gf180mcu_fd_sc_mcu7t5v0__fill_2
XFILLER_10_670 vdd vss gf180mcu_fd_sc_mcu7t5v0__fillcap_4
X_277_ net33 net201 vdd vss gf180mcu_fd_sc_mcu7t5v0__clkbuf_1
XFILLER_49_350 vdd vss gf180mcu_fd_sc_mcu7t5v0__fillcap_4
XFILLER_37_567 vdd vss gf180mcu_fd_sc_mcu7t5v0__fill_1
XFILLER_92_684 vdd vss gf180mcu_fd_sc_mcu7t5v0__fillcap_4
XFILLER_24_206 vdd vss gf180mcu_fd_sc_mcu7t5v0__fillcap_32
XFILLER_32_250 vdd vss gf180mcu_fd_sc_mcu7t5v0__fill_1
XFILLER_20_456 vdd vss gf180mcu_fd_sc_mcu7t5v0__fillcap_4
Xoutput220 net220 io_wbs_datrd[23] vdd vss gf180mcu_fd_sc_mcu7t5v0__clkbuf_3
Xoutput231 net231 io_wbs_datrd[4] vdd vss gf180mcu_fd_sc_mcu7t5v0__clkbuf_3
Xoutput242 net242 io_wbs_datwr_0[14] vdd vss gf180mcu_fd_sc_mcu7t5v0__clkbuf_3
Xoutput253 net253 io_wbs_datwr_0[24] vdd vss gf180mcu_fd_sc_mcu7t5v0__clkbuf_3
Xoutput264 net264 io_wbs_datwr_0[5] vdd vss gf180mcu_fd_sc_mcu7t5v0__clkbuf_3
Xoutput275 net275 io_wbs_datwr_1[15] vdd vss gf180mcu_fd_sc_mcu7t5v0__clkbuf_3
Xoutput286 net286 io_wbs_datwr_1[25] vdd vss gf180mcu_fd_sc_mcu7t5v0__clkbuf_3
Xoutput297 net297 io_wbs_datwr_1[6] vdd vss gf180mcu_fd_sc_mcu7t5v0__clkbuf_3
XANTENNA_input36_I io_wbs_datrd_0[0] vdd vss gf180mcu_fd_sc_mcu7t5v0__antenna
XFILLER_28_534 vdd vss gf180mcu_fd_sc_mcu7t5v0__fillcap_64
XFILLER_83_651 vdd vss gf180mcu_fd_sc_mcu7t5v0__fill_1
XFILLER_83_684 vdd vss gf180mcu_fd_sc_mcu7t5v0__fillcap_4
XFILLER_82_172 vdd vss gf180mcu_fd_sc_mcu7t5v0__fillcap_4
XFILLER_90_37 vdd vss gf180mcu_fd_sc_mcu7t5v0__fillcap_64
XFILLER_23_283 vdd vss gf180mcu_fd_sc_mcu7t5v0__fill_1
XFILLER_51_570 vdd vss gf180mcu_fd_sc_mcu7t5v0__fillcap_64
XFILLER_70_389 vdd vss gf180mcu_fd_sc_mcu7t5v0__fill_1
X_200_ net50 _077_ vdd vss gf180mcu_fd_sc_mcu7t5v0__clkinv_1
X_131_ _026_ _022_ _024_ _027_ net227 vdd vss gf180mcu_fd_sc_mcu7t5v0__oai22_1
XFILLER_3_644 vdd vss gf180mcu_fd_sc_mcu7t5v0__fill_2
XFILLER_3_622 vdd vss gf180mcu_fd_sc_mcu7t5v0__fillcap_16
XFILLER_2_176 vdd vss gf180mcu_fd_sc_mcu7t5v0__fill_1
XFILLER_78_456 vdd vss gf180mcu_fd_sc_mcu7t5v0__fillcap_4
XFILLER_19_567 vdd vss gf180mcu_fd_sc_mcu7t5v0__fill_1
XFILLER_0_79 vdd vss gf180mcu_fd_sc_mcu7t5v0__fillcap_4
XFILLER_14_250 vdd vss gf180mcu_fd_sc_mcu7t5v0__fillcap_64
X_329_ net120 net257 vdd vss gf180mcu_fd_sc_mcu7t5v0__clkbuf_1
XANTENNA__352__I net110 vdd vss gf180mcu_fd_sc_mcu7t5v0__antenna
XFILLER_6_460 vdd vss gf180mcu_fd_sc_mcu7t5v0__fill_1
XFILLER_43_2 vdd vss gf180mcu_fd_sc_mcu7t5v0__fill_1
XFILLER_37_353 vdd vss gf180mcu_fd_sc_mcu7t5v0__fill_2
XFILLER_65_684 vdd vss gf180mcu_fd_sc_mcu7t5v0__fillcap_4
XFILLER_64_172 vdd vss gf180mcu_fd_sc_mcu7t5v0__fillcap_4
XFILLER_80_687 vdd vss gf180mcu_fd_sc_mcu7t5v0__fill_1
XFILLER_80_676 vdd vss gf180mcu_fd_sc_mcu7t5v0__fill_1
XFILLER_33_570 vdd vss gf180mcu_fd_sc_mcu7t5v0__fillcap_64
XFILLER_52_389 vdd vss gf180mcu_fd_sc_mcu7t5v0__fill_1
XANTENNA__262__I net20 vdd vss gf180mcu_fd_sc_mcu7t5v0__antenna
XANTENNA_output142_I net142 vdd vss gf180mcu_fd_sc_mcu7t5v0__antenna
XFILLER_87_286 vdd vss gf180mcu_fd_sc_mcu7t5v0__fillcap_64
XFILLER_56_651 vdd vss gf180mcu_fd_sc_mcu7t5v0__fill_1
XFILLER_43_312 vdd vss gf180mcu_fd_sc_mcu7t5v0__fill_1
XFILLER_43_323 vdd vss gf180mcu_fd_sc_mcu7t5v0__fillcap_4
XFILLER_83_492 vdd vss gf180mcu_fd_sc_mcu7t5v0__fillcap_4
XFILLER_71_654 vdd vss gf180mcu_fd_sc_mcu7t5v0__fill_2
XFILLER_71_676 vdd vss gf180mcu_fd_sc_mcu7t5v0__fillcap_8
XFILLER_11_286 vdd vss gf180mcu_fd_sc_mcu7t5v0__fillcap_64
X_114_ _013_ _014_ vdd vss gf180mcu_fd_sc_mcu7t5v0__clkbuf_1
XFILLER_7_279 vdd vss gf180mcu_fd_sc_mcu7t5v0__fillcap_4
XANTENNA__172__I net41 vdd vss gf180mcu_fd_sc_mcu7t5v0__antenna
XFILLER_3_463 vdd vss gf180mcu_fd_sc_mcu7t5v0__fillcap_8
XTAP_507 vdd vss gf180mcu_fd_sc_mcu7t5v0__filltie
XFILLER_3_474 vdd vss gf180mcu_fd_sc_mcu7t5v0__fillcap_4
XTAP_518 vdd vss gf180mcu_fd_sc_mcu7t5v0__filltie
XTAP_529 vdd vss gf180mcu_fd_sc_mcu7t5v0__filltie
XFILLER_93_212 vdd vss gf180mcu_fd_sc_mcu7t5v0__fillcap_32
XFILLER_66_459 vdd vss gf180mcu_fd_sc_mcu7t5v0__fill_2
XFILLER_47_651 vdd vss gf180mcu_fd_sc_mcu7t5v0__fill_1
XFILLER_46_172 vdd vss gf180mcu_fd_sc_mcu7t5v0__fillcap_4
XANTENNA__347__I net105 vdd vss gf180mcu_fd_sc_mcu7t5v0__antenna
XFILLER_62_676 vdd vss gf180mcu_fd_sc_mcu7t5v0__fill_1
XFILLER_15_570 vdd vss gf180mcu_fd_sc_mcu7t5v0__fillcap_64
XFILLER_34_389 vdd vss gf180mcu_fd_sc_mcu7t5v0__fill_1
XFILLER_62_687 vdd vss gf180mcu_fd_sc_mcu7t5v0__fill_1
XFILLER_57_415 vdd vss gf180mcu_fd_sc_mcu7t5v0__fillcap_4
XFILLER_69_286 vdd vss gf180mcu_fd_sc_mcu7t5v0__fillcap_64
XFILLER_38_651 vdd vss gf180mcu_fd_sc_mcu7t5v0__fill_1
XFILLER_38_684 vdd vss gf180mcu_fd_sc_mcu7t5v0__fillcap_4
XANTENNA__257__I net15 vdd vss gf180mcu_fd_sc_mcu7t5v0__antenna
XFILLER_53_654 vdd vss gf180mcu_fd_sc_mcu7t5v0__fill_2
XFILLER_40_315 vdd vss gf180mcu_fd_sc_mcu7t5v0__fillcap_4
XFILLER_20_21 vdd vss gf180mcu_fd_sc_mcu7t5v0__fillcap_8
XFILLER_0_422 vdd vss gf180mcu_fd_sc_mcu7t5v0__fill_1
XFILLER_0_488 vdd vss gf180mcu_fd_sc_mcu7t5v0__fill_2
XFILLER_75_212 vdd vss gf180mcu_fd_sc_mcu7t5v0__fill_1
XFILLER_29_651 vdd vss gf180mcu_fd_sc_mcu7t5v0__fill_1
XFILLER_28_172 vdd vss gf180mcu_fd_sc_mcu7t5v0__fillcap_4
XFILLER_45_73 vdd vss gf180mcu_fd_sc_mcu7t5v0__fillcap_64
XFILLER_44_654 vdd vss gf180mcu_fd_sc_mcu7t5v0__fill_2
XFILLER_44_676 vdd vss gf180mcu_fd_sc_mcu7t5v0__fillcap_8
XFILLER_16_389 vdd vss gf180mcu_fd_sc_mcu7t5v0__fill_1
XFILLER_6_67 vdd vss gf180mcu_fd_sc_mcu7t5v0__fill_1
XTAP_315 vdd vss gf180mcu_fd_sc_mcu7t5v0__filltie
XTAP_304 vdd vss gf180mcu_fd_sc_mcu7t5v0__filltie
XTAP_348 vdd vss gf180mcu_fd_sc_mcu7t5v0__filltie
XTAP_337 vdd vss gf180mcu_fd_sc_mcu7t5v0__filltie
XTAP_326 vdd vss gf180mcu_fd_sc_mcu7t5v0__filltie
XFILLER_3_293 vdd vss gf180mcu_fd_sc_mcu7t5v0__fill_2
XTAP_359 vdd vss gf180mcu_fd_sc_mcu7t5v0__filltie
XFILLER_79_562 vdd vss gf180mcu_fd_sc_mcu7t5v0__fill_1
XFILLER_47_492 vdd vss gf180mcu_fd_sc_mcu7t5v0__fillcap_4
XFILLER_81_215 vdd vss gf180mcu_fd_sc_mcu7t5v0__fillcap_64
XFILLER_35_654 vdd vss gf180mcu_fd_sc_mcu7t5v0__fill_2
XFILLER_50_602 vdd vss gf180mcu_fd_sc_mcu7t5v0__fill_1
XFILLER_30_392 vdd vss gf180mcu_fd_sc_mcu7t5v0__fillcap_64
XTAP_860 vdd vss gf180mcu_fd_sc_mcu7t5v0__filltie
XTAP_871 vdd vss gf180mcu_fd_sc_mcu7t5v0__filltie
XFILLER_57_212 vdd vss gf180mcu_fd_sc_mcu7t5v0__fill_1
XTAP_882 vdd vss gf180mcu_fd_sc_mcu7t5v0__filltie
XTAP_893 vdd vss gf180mcu_fd_sc_mcu7t5v0__filltie
XFILLER_26_654 vdd vss gf180mcu_fd_sc_mcu7t5v0__fill_2
XFILLER_82_27 vdd vss gf180mcu_fd_sc_mcu7t5v0__fillcap_8
XFILLER_15_21 vdd vss gf180mcu_fd_sc_mcu7t5v0__fillcap_32
XFILLER_26_676 vdd vss gf180mcu_fd_sc_mcu7t5v0__fillcap_8
XFILLER_40_101 vdd vss gf180mcu_fd_sc_mcu7t5v0__fillcap_4
XFILLER_25_186 vdd vss gf180mcu_fd_sc_mcu7t5v0__fill_1
XFILLER_31_53 vdd vss gf180mcu_fd_sc_mcu7t5v0__fillcap_16
XANTENNA__108__A2 _003_ vdd vss gf180mcu_fd_sc_mcu7t5v0__antenna
Xinput120 io_wbs_datwr[28] net120 vdd vss gf180mcu_fd_sc_mcu7t5v0__dlyb_1
XFILLER_88_392 vdd vss gf180mcu_fd_sc_mcu7t5v0__fillcap_64
Xinput131 io_wbs_datwr[9] net131 vdd vss gf180mcu_fd_sc_mcu7t5v0__dlyb_1
XFILLER_0_285 vdd vss gf180mcu_fd_sc_mcu7t5v0__fillcap_8
XFILLER_0_296 vdd vss gf180mcu_fd_sc_mcu7t5v0__fill_2
XFILLER_76_543 vdd vss gf180mcu_fd_sc_mcu7t5v0__fillcap_4
XFILLER_63_215 vdd vss gf180mcu_fd_sc_mcu7t5v0__fillcap_64
XFILLER_17_654 vdd vss gf180mcu_fd_sc_mcu7t5v0__fill_2
XFILLER_29_492 vdd vss gf180mcu_fd_sc_mcu7t5v0__fillcap_4
XFILLER_32_602 vdd vss gf180mcu_fd_sc_mcu7t5v0__fill_1
XFILLER_16_197 vdd vss gf180mcu_fd_sc_mcu7t5v0__fillcap_4
XPHY_170 vdd vss gf180mcu_fd_sc_mcu7t5v0__endcap
XPHY_181 vdd vss gf180mcu_fd_sc_mcu7t5v0__endcap
XFILLER_12_392 vdd vss gf180mcu_fd_sc_mcu7t5v0__fillcap_64
XFILLER_8_385 vdd vss gf180mcu_fd_sc_mcu7t5v0__fillcap_4
XANTENNA__360__I net119 vdd vss gf180mcu_fd_sc_mcu7t5v0__antenna
XFILLER_67_510 vdd vss gf180mcu_fd_sc_mcu7t5v0__fillcap_32
XFILLER_86_318 vdd vss gf180mcu_fd_sc_mcu7t5v0__fill_1
XTAP_189 vdd vss gf180mcu_fd_sc_mcu7t5v0__filltie
XFILLER_39_212 vdd vss gf180mcu_fd_sc_mcu7t5v0__fill_1
XFILLER_22_101 vdd vss gf180mcu_fd_sc_mcu7t5v0__fillcap_4
XFILLER_10_318 vdd vss gf180mcu_fd_sc_mcu7t5v0__fill_1
XANTENNA_input66_I io_wbs_datrd_0[8] vdd vss gf180mcu_fd_sc_mcu7t5v0__antenna
XTAP_690 vdd vss gf180mcu_fd_sc_mcu7t5v0__filltie
XFILLER_93_37 vdd vss gf180mcu_fd_sc_mcu7t5v0__fillcap_32
XANTENNA_output222_I net222 vdd vss gf180mcu_fd_sc_mcu7t5v0__antenna
XFILLER_45_215 vdd vss gf180mcu_fd_sc_mcu7t5v0__fillcap_64
XFILLER_14_602 vdd vss gf180mcu_fd_sc_mcu7t5v0__fill_1
XFILLER_13_112 vdd vss gf180mcu_fd_sc_mcu7t5v0__fill_2
XFILLER_41_421 vdd vss gf180mcu_fd_sc_mcu7t5v0__fillcap_4
X_362_ net121 net290 vdd vss gf180mcu_fd_sc_mcu7t5v0__clkbuf_1
X_293_ net19 net187 vdd vss gf180mcu_fd_sc_mcu7t5v0__clkbuf_1
XANTENNA__180__I net76 vdd vss gf180mcu_fd_sc_mcu7t5v0__antenna
XFILLER_68_318 vdd vss gf180mcu_fd_sc_mcu7t5v0__fill_1
XFILLER_64_502 vdd vss gf180mcu_fd_sc_mcu7t5v0__fillcap_16
XFILLER_91_354 vdd vss gf180mcu_fd_sc_mcu7t5v0__fill_1
XFILLER_20_605 vdd vss gf180mcu_fd_sc_mcu7t5v0__fillcap_32
XANTENNA__355__I net114 vdd vss gf180mcu_fd_sc_mcu7t5v0__antenna
XFILLER_20_649 vdd vss gf180mcu_fd_sc_mcu7t5v0__fill_2
XFILLER_73_2 vdd vss gf180mcu_fd_sc_mcu7t5v0__fill_1
XFILLER_27_204 vdd vss gf180mcu_fd_sc_mcu7t5v0__fill_2
XFILLER_27_215 vdd vss gf180mcu_fd_sc_mcu7t5v0__fill_2
XANTENNA_input120_I io_wbs_datwr[28] vdd vss gf180mcu_fd_sc_mcu7t5v0__antenna
XFILLER_27_259 vdd vss gf180mcu_fd_sc_mcu7t5v0__fillcap_16
XFILLER_82_321 vdd vss gf180mcu_fd_sc_mcu7t5v0__fillcap_64
XFILLER_23_421 vdd vss gf180mcu_fd_sc_mcu7t5v0__fillcap_4
XANTENNA__265__I net23 vdd vss gf180mcu_fd_sc_mcu7t5v0__antenna
XFILLER_11_649 vdd vss gf180mcu_fd_sc_mcu7t5v0__fill_2
XFILLER_11_638 vdd vss gf180mcu_fd_sc_mcu7t5v0__fill_1
XFILLER_10_104 vdd vss gf180mcu_fd_sc_mcu7t5v0__fill_2
XFILLER_6_108 vdd vss gf180mcu_fd_sc_mcu7t5v0__fillcap_64
XFILLER_12_33 vdd vss gf180mcu_fd_sc_mcu7t5v0__fill_2
XFILLER_88_37 vdd vss gf180mcu_fd_sc_mcu7t5v0__fillcap_64
XANTENNA_output172_I net172 vdd vss gf180mcu_fd_sc_mcu7t5v0__antenna
XFILLER_78_605 vdd vss gf180mcu_fd_sc_mcu7t5v0__fill_1
XFILLER_77_137 vdd vss gf180mcu_fd_sc_mcu7t5v0__fillcap_4
XFILLER_73_354 vdd vss gf180mcu_fd_sc_mcu7t5v0__fill_1
XANTENNA__175__I net42 vdd vss gf180mcu_fd_sc_mcu7t5v0__antenna
X_345_ net103 net272 vdd vss gf180mcu_fd_sc_mcu7t5v0__clkbuf_1
XFILLER_53_73 vdd vss gf180mcu_fd_sc_mcu7t5v0__fillcap_64
X_276_ net32 net200 vdd vss gf180mcu_fd_sc_mcu7t5v0__clkbuf_1
XFILLER_5_141 vdd vss gf180mcu_fd_sc_mcu7t5v0__fill_1
XFILLER_69_638 vdd vss gf180mcu_fd_sc_mcu7t5v0__fill_1
XFILLER_69_649 vdd vss gf180mcu_fd_sc_mcu7t5v0__fillcap_4
XFILLER_64_321 vdd vss gf180mcu_fd_sc_mcu7t5v0__fillcap_64
XFILLER_52_527 vdd vss gf180mcu_fd_sc_mcu7t5v0__fillcap_4
Xoutput210 net210 io_wbs_datrd[14] vdd vss gf180mcu_fd_sc_mcu7t5v0__clkbuf_3
Xoutput232 net232 io_wbs_datrd[5] vdd vss gf180mcu_fd_sc_mcu7t5v0__clkbuf_3
Xoutput221 net221 io_wbs_datrd[24] vdd vss gf180mcu_fd_sc_mcu7t5v0__clkbuf_3
Xoutput243 net243 io_wbs_datwr_0[15] vdd vss gf180mcu_fd_sc_mcu7t5v0__clkbuf_3
Xoutput265 net265 io_wbs_datwr_0[6] vdd vss gf180mcu_fd_sc_mcu7t5v0__clkbuf_3
Xoutput276 net276 io_wbs_datwr_1[16] vdd vss gf180mcu_fd_sc_mcu7t5v0__clkbuf_3
Xoutput254 net254 io_wbs_datwr_0[25] vdd vss gf180mcu_fd_sc_mcu7t5v0__clkbuf_3
Xoutput298 net298 io_wbs_datwr_1[7] vdd vss gf180mcu_fd_sc_mcu7t5v0__clkbuf_3
Xoutput287 net287 io_wbs_datwr_1[26] vdd vss gf180mcu_fd_sc_mcu7t5v0__clkbuf_3
XFILLER_59_137 vdd vss gf180mcu_fd_sc_mcu7t5v0__fillcap_4
XANTENNA_input29_I io_wbs_adr[4] vdd vss gf180mcu_fd_sc_mcu7t5v0__antenna
XFILLER_83_630 vdd vss gf180mcu_fd_sc_mcu7t5v0__fillcap_8
XFILLER_83_641 vdd vss gf180mcu_fd_sc_mcu7t5v0__fillcap_8
XFILLER_55_354 vdd vss gf180mcu_fd_sc_mcu7t5v0__fill_1
XFILLER_90_27 vdd vss gf180mcu_fd_sc_mcu7t5v0__fillcap_8
X_130_ net58 _027_ vdd vss gf180mcu_fd_sc_mcu7t5v0__clkinv_1
XFILLER_7_428 vdd vss gf180mcu_fd_sc_mcu7t5v0__fillcap_64
XFILLER_3_2 vdd vss gf180mcu_fd_sc_mcu7t5v0__fill_1
XFILLER_46_332 vdd vss gf180mcu_fd_sc_mcu7t5v0__fill_2
XFILLER_46_321 vdd vss gf180mcu_fd_sc_mcu7t5v0__fillcap_8
XFILLER_0_69 vdd vss gf180mcu_fd_sc_mcu7t5v0__fill_1
XFILLER_46_376 vdd vss gf180mcu_fd_sc_mcu7t5v0__fillcap_8
XFILLER_34_527 vdd vss gf180mcu_fd_sc_mcu7t5v0__fillcap_4
XFILLER_61_357 vdd vss gf180mcu_fd_sc_mcu7t5v0__fillcap_64
X_328_ net119 net256 vdd vss gf180mcu_fd_sc_mcu7t5v0__clkbuf_1
X_259_ net17 net153 vdd vss gf180mcu_fd_sc_mcu7t5v0__clkbuf_1
XFILLER_36_2 vdd vss gf180mcu_fd_sc_mcu7t5v0__fill_1
XFILLER_69_468 vdd vss gf180mcu_fd_sc_mcu7t5v0__fillcap_4
XFILLER_65_641 vdd vss gf180mcu_fd_sc_mcu7t5v0__fillcap_8
XFILLER_92_460 vdd vss gf180mcu_fd_sc_mcu7t5v0__fill_1
XFILLER_80_600 vdd vss gf180mcu_fd_sc_mcu7t5v0__fill_2
XFILLER_80_655 vdd vss gf180mcu_fd_sc_mcu7t5v0__fill_1
XFILLER_60_19 vdd vss gf180mcu_fd_sc_mcu7t5v0__fill_2
XFILLER_18_21 vdd vss gf180mcu_fd_sc_mcu7t5v0__fillcap_8
XFILLER_28_321 vdd vss gf180mcu_fd_sc_mcu7t5v0__fillcap_64
XFILLER_68_490 vdd vss gf180mcu_fd_sc_mcu7t5v0__fill_2
XFILLER_16_527 vdd vss gf180mcu_fd_sc_mcu7t5v0__fillcap_4
XFILLER_43_302 vdd vss gf180mcu_fd_sc_mcu7t5v0__fillcap_8
XFILLER_43_357 vdd vss gf180mcu_fd_sc_mcu7t5v0__fillcap_64
XFILLER_70_176 vdd vss gf180mcu_fd_sc_mcu7t5v0__fill_1
X_113_ _012_ _003_ _006_ _007_ _013_ vdd vss gf180mcu_fd_sc_mcu7t5v0__nand4_1
XTAP_508 vdd vss gf180mcu_fd_sc_mcu7t5v0__filltie
XTAP_519 vdd vss gf180mcu_fd_sc_mcu7t5v0__filltie
XFILLER_78_243 vdd vss gf180mcu_fd_sc_mcu7t5v0__fillcap_4
XFILLER_47_641 vdd vss gf180mcu_fd_sc_mcu7t5v0__fillcap_8
XFILLER_66_438 vdd vss gf180mcu_fd_sc_mcu7t5v0__fill_1
XFILLER_93_279 vdd vss gf180mcu_fd_sc_mcu7t5v0__fill_1
XFILLER_19_354 vdd vss gf180mcu_fd_sc_mcu7t5v0__fill_1
XFILLER_74_460 vdd vss gf180mcu_fd_sc_mcu7t5v0__fill_1
XFILLER_62_655 vdd vss gf180mcu_fd_sc_mcu7t5v0__fill_1
XANTENNA__363__I net123 vdd vss gf180mcu_fd_sc_mcu7t5v0__antenna
XFILLER_57_405 vdd vss gf180mcu_fd_sc_mcu7t5v0__fillcap_8
XFILLER_25_357 vdd vss gf180mcu_fd_sc_mcu7t5v0__fillcap_64
XFILLER_52_176 vdd vss gf180mcu_fd_sc_mcu7t5v0__fill_1
XFILLER_80_463 vdd vss gf180mcu_fd_sc_mcu7t5v0__fillcap_64
XFILLER_21_563 vdd vss gf180mcu_fd_sc_mcu7t5v0__fillcap_4
XANTENNA_input96_I io_wbs_datrd_1[6] vdd vss gf180mcu_fd_sc_mcu7t5v0__antenna
XFILLER_20_33 vdd vss gf180mcu_fd_sc_mcu7t5v0__fill_2
XANTENNA_output252_I net252 vdd vss gf180mcu_fd_sc_mcu7t5v0__antenna
XFILLER_0_445 vdd vss gf180mcu_fd_sc_mcu7t5v0__fill_2
XFILLER_29_641 vdd vss gf180mcu_fd_sc_mcu7t5v0__fillcap_8
XFILLER_75_279 vdd vss gf180mcu_fd_sc_mcu7t5v0__fillcap_4
XFILLER_28_195 vdd vss gf180mcu_fd_sc_mcu7t5v0__fillcap_8
XFILLER_71_496 vdd vss gf180mcu_fd_sc_mcu7t5v0__fill_1
XFILLER_8_534 vdd vss gf180mcu_fd_sc_mcu7t5v0__fillcap_64
XFILLER_61_73 vdd vss gf180mcu_fd_sc_mcu7t5v0__fillcap_64
XANTENNA__183__I net44 vdd vss gf180mcu_fd_sc_mcu7t5v0__antenna
XFILLER_6_57 vdd vss gf180mcu_fd_sc_mcu7t5v0__fill_2
XTAP_305 vdd vss gf180mcu_fd_sc_mcu7t5v0__filltie
XTAP_349 vdd vss gf180mcu_fd_sc_mcu7t5v0__filltie
XTAP_338 vdd vss gf180mcu_fd_sc_mcu7t5v0__filltie
XTAP_327 vdd vss gf180mcu_fd_sc_mcu7t5v0__filltie
XTAP_316 vdd vss gf180mcu_fd_sc_mcu7t5v0__filltie
XFILLER_3_283 vdd vss gf180mcu_fd_sc_mcu7t5v0__fill_1
XFILLER_79_585 vdd vss gf180mcu_fd_sc_mcu7t5v0__fill_2
XFILLER_54_419 vdd vss gf180mcu_fd_sc_mcu7t5v0__fillcap_32
XFILLER_19_151 vdd vss gf180mcu_fd_sc_mcu7t5v0__fill_2
XANTENNA__358__I net117 vdd vss gf180mcu_fd_sc_mcu7t5v0__antenna
XFILLER_34_176 vdd vss gf180mcu_fd_sc_mcu7t5v0__fill_1
XFILLER_62_463 vdd vss gf180mcu_fd_sc_mcu7t5v0__fill_1
XFILLER_62_474 vdd vss gf180mcu_fd_sc_mcu7t5v0__fillcap_8
XFILLER_62_485 vdd vss gf180mcu_fd_sc_mcu7t5v0__fill_2
XTAP_850 vdd vss gf180mcu_fd_sc_mcu7t5v0__filltie
XTAP_861 vdd vss gf180mcu_fd_sc_mcu7t5v0__filltie
XTAP_872 vdd vss gf180mcu_fd_sc_mcu7t5v0__filltie
XTAP_883 vdd vss gf180mcu_fd_sc_mcu7t5v0__filltie
XTAP_894 vdd vss gf180mcu_fd_sc_mcu7t5v0__filltie
XANTENNA_input11_I io_wbs_adr[17] vdd vss gf180mcu_fd_sc_mcu7t5v0__antenna
XANTENNA__268__I net27 vdd vss gf180mcu_fd_sc_mcu7t5v0__antenna
XFILLER_38_460 vdd vss gf180mcu_fd_sc_mcu7t5v0__fill_1
XFILLER_57_279 vdd vss gf180mcu_fd_sc_mcu7t5v0__fillcap_4
XFILLER_25_176 vdd vss gf180mcu_fd_sc_mcu7t5v0__fillcap_8
XFILLER_53_496 vdd vss gf180mcu_fd_sc_mcu7t5v0__fill_1
XFILLER_40_179 vdd vss gf180mcu_fd_sc_mcu7t5v0__fillcap_64
XFILLER_31_21 vdd vss gf180mcu_fd_sc_mcu7t5v0__fillcap_32
XANTENNA__108__A3 _006_ vdd vss gf180mcu_fd_sc_mcu7t5v0__antenna
Xinput110 io_wbs_datwr[19] net110 vdd vss gf180mcu_fd_sc_mcu7t5v0__dlyb_1
Xinput132 io_wbs_sel[0] net132 vdd vss gf180mcu_fd_sc_mcu7t5v0__dlyb_1
Xinput121 io_wbs_datwr[29] net121 vdd vss gf180mcu_fd_sc_mcu7t5v0__dlyb_1
XFILLER_76_511 vdd vss gf180mcu_fd_sc_mcu7t5v0__fillcap_4
XFILLER_76_566 vdd vss gf180mcu_fd_sc_mcu7t5v0__fill_1
XANTENNA__178__I net43 vdd vss gf180mcu_fd_sc_mcu7t5v0__antenna
XFILLER_76_588 vdd vss gf180mcu_fd_sc_mcu7t5v0__fillcap_8
XFILLER_16_143 vdd vss gf180mcu_fd_sc_mcu7t5v0__fillcap_4
XFILLER_44_463 vdd vss gf180mcu_fd_sc_mcu7t5v0__fillcap_64
XFILLER_16_187 vdd vss gf180mcu_fd_sc_mcu7t5v0__fill_2
XFILLER_16_176 vdd vss gf180mcu_fd_sc_mcu7t5v0__fill_1
XPHY_160 vdd vss gf180mcu_fd_sc_mcu7t5v0__endcap
XPHY_182 vdd vss gf180mcu_fd_sc_mcu7t5v0__endcap
XPHY_171 vdd vss gf180mcu_fd_sc_mcu7t5v0__endcap
XANTENNA_input3_I io_wbs_adr[0] vdd vss gf180mcu_fd_sc_mcu7t5v0__antenna
XFILLER_67_566 vdd vss gf180mcu_fd_sc_mcu7t5v0__fill_2
XFILLER_39_279 vdd vss gf180mcu_fd_sc_mcu7t5v0__fillcap_4
XFILLER_35_496 vdd vss gf180mcu_fd_sc_mcu7t5v0__fill_1
XFILLER_22_179 vdd vss gf180mcu_fd_sc_mcu7t5v0__fill_1
XANTENNA_input59_I io_wbs_datrd_0[30] vdd vss gf180mcu_fd_sc_mcu7t5v0__antenna
XTAP_680 vdd vss gf180mcu_fd_sc_mcu7t5v0__filltie
XTAP_691 vdd vss gf180mcu_fd_sc_mcu7t5v0__filltie
XFILLER_58_566 vdd vss gf180mcu_fd_sc_mcu7t5v0__fillcap_16
XANTENNA_output215_I net215 vdd vss gf180mcu_fd_sc_mcu7t5v0__antenna
XFILLER_26_21 vdd vss gf180mcu_fd_sc_mcu7t5v0__fillcap_8
XFILLER_73_558 vdd vss gf180mcu_fd_sc_mcu7t5v0__fillcap_4
XFILLER_26_463 vdd vss gf180mcu_fd_sc_mcu7t5v0__fillcap_64
X_361_ net120 net289 vdd vss gf180mcu_fd_sc_mcu7t5v0__clkbuf_1
X_292_ net18 net186 vdd vss gf180mcu_fd_sc_mcu7t5v0__clkbuf_1
XFILLER_41_499 vdd vss gf180mcu_fd_sc_mcu7t5v0__fillcap_64