* NGSPICE file created from wb_memory.ext - technology: gf180mcuC

* Black-box entry subcircuit for gf180mcu_fd_sc_mcu7t5v0__fill_2 abstract view
.subckt gf180mcu_fd_sc_mcu7t5v0__fill_2 VDD VSS
.ends

* Black-box entry subcircuit for gf180mcu_fd_sc_mcu7t5v0__fillcap_8 abstract view
.subckt gf180mcu_fd_sc_mcu7t5v0__fillcap_8 VDD VSS
.ends

* Black-box entry subcircuit for gf180mcu_fd_sc_mcu7t5v0__fillcap_64 abstract view
.subckt gf180mcu_fd_sc_mcu7t5v0__fillcap_64 VDD VSS
.ends

* Black-box entry subcircuit for gf180mcu_fd_sc_mcu7t5v0__filltie abstract view
.subckt gf180mcu_fd_sc_mcu7t5v0__filltie VDD VSS
.ends

* Black-box entry subcircuit for gf180mcu_fd_sc_mcu7t5v0__fillcap_4 abstract view
.subckt gf180mcu_fd_sc_mcu7t5v0__fillcap_4 VDD VSS
.ends

* Black-box entry subcircuit for gf180mcu_fd_sc_mcu7t5v0__antenna abstract view
.subckt gf180mcu_fd_sc_mcu7t5v0__antenna I VDD VSS
.ends

* Black-box entry subcircuit for gf180mcu_fd_sc_mcu7t5v0__fill_1 abstract view
.subckt gf180mcu_fd_sc_mcu7t5v0__fill_1 VDD VSS
.ends

* Black-box entry subcircuit for gf180mcu_fd_sc_mcu7t5v0__clkbuf_1 abstract view
.subckt gf180mcu_fd_sc_mcu7t5v0__clkbuf_1 I Z VDD VSS
.ends

* Black-box entry subcircuit for gf180mcu_fd_sc_mcu7t5v0__dffrnq_1 abstract view
.subckt gf180mcu_fd_sc_mcu7t5v0__dffrnq_1 D RN CLK Q VDD VSS
.ends

* Black-box entry subcircuit for gf180mcu_fd_sc_mcu7t5v0__tiel abstract view
.subckt gf180mcu_fd_sc_mcu7t5v0__tiel ZN VDD VSS
.ends

* Black-box entry subcircuit for gf180mcu_fd_sc_mcu7t5v0__clkbuf_4 abstract view
.subckt gf180mcu_fd_sc_mcu7t5v0__clkbuf_4 I Z VDD VSS
.ends

* Black-box entry subcircuit for gf180mcu_fd_sc_mcu7t5v0__buf_2 abstract view
.subckt gf180mcu_fd_sc_mcu7t5v0__buf_2 I Z VDD VSS
.ends

* Black-box entry subcircuit for gf180mcu_fd_sc_mcu7t5v0__clkinv_1 abstract view
.subckt gf180mcu_fd_sc_mcu7t5v0__clkinv_1 I ZN VDD VSS
.ends

* Black-box entry subcircuit for gf180mcu_fd_sc_mcu7t5v0__fillcap_16 abstract view
.subckt gf180mcu_fd_sc_mcu7t5v0__fillcap_16 VDD VSS
.ends

* Black-box entry subcircuit for gf180mcu_fd_sc_mcu7t5v0__mux2_2 abstract view
.subckt gf180mcu_fd_sc_mcu7t5v0__mux2_2 I0 I1 S Z VDD VSS
.ends

* Black-box entry subcircuit for gf180mcu_fd_sc_mcu7t5v0__fillcap_32 abstract view
.subckt gf180mcu_fd_sc_mcu7t5v0__fillcap_32 VDD VSS
.ends

* Black-box entry subcircuit for gf180mcu_fd_sc_mcu7t5v0__or2_1 abstract view
.subckt gf180mcu_fd_sc_mcu7t5v0__or2_1 A1 A2 Z VDD VSS
.ends

* Black-box entry subcircuit for gf180mcu_fd_sc_mcu7t5v0__endcap abstract view
.subckt gf180mcu_fd_sc_mcu7t5v0__endcap VDD VSS
.ends

* Black-box entry subcircuit for gf180mcu_fd_sc_mcu7t5v0__buf_1 abstract view
.subckt gf180mcu_fd_sc_mcu7t5v0__buf_1 I Z VDD VSS
.ends

* Black-box entry subcircuit for gf180mcu_fd_sc_mcu7t5v0__clkbuf_16 abstract view
.subckt gf180mcu_fd_sc_mcu7t5v0__clkbuf_16 I Z VDD VSS
.ends

* Black-box entry subcircuit for gf180mcu_fd_sc_mcu7t5v0__nand2_1 abstract view
.subckt gf180mcu_fd_sc_mcu7t5v0__nand2_1 A1 A2 ZN VDD VSS
.ends

* Black-box entry subcircuit for gf180mcu_fd_sc_mcu7t5v0__nand4_1 abstract view
.subckt gf180mcu_fd_sc_mcu7t5v0__nand4_1 A1 A2 A3 A4 ZN VDD VSS
.ends

* Black-box entry subcircuit for gf180mcu_fd_sc_mcu7t5v0__dffsnq_1 abstract view
.subckt gf180mcu_fd_sc_mcu7t5v0__dffsnq_1 D SETN CLK Q VDD VSS
.ends

* Black-box entry subcircuit for gf180mcu_fd_sc_mcu7t5v0__and3_1 abstract view
.subckt gf180mcu_fd_sc_mcu7t5v0__and3_1 A1 A2 A3 Z VDD VSS
.ends

* Black-box entry subcircuit for gf180mcu_fd_sc_mcu7t5v0__nor2_1 abstract view
.subckt gf180mcu_fd_sc_mcu7t5v0__nor2_1 A1 A2 ZN VDD VSS
.ends

* Black-box entry subcircuit for gf180mcu_fd_sc_mcu7t5v0__clkbuf_2 abstract view
.subckt gf180mcu_fd_sc_mcu7t5v0__clkbuf_2 I Z VDD VSS
.ends

.subckt wb_memory addr_mem0[0] addr_mem0[1] addr_mem0[2] addr_mem0[3] addr_mem0[4]
+ addr_mem0[5] addr_mem0[6] addr_mem0[7] addr_mem0[8] addr_mem1[0] addr_mem1[1] addr_mem1[2]
+ addr_mem1[3] addr_mem1[4] addr_mem1[5] addr_mem1[6] addr_mem1[7] addr_mem1[8] csb_mem0
+ csb_mem1 din_mem0[0] din_mem0[10] din_mem0[11] din_mem0[12] din_mem0[13] din_mem0[14]
+ din_mem0[15] din_mem0[16] din_mem0[17] din_mem0[18] din_mem0[19] din_mem0[1] din_mem0[20]
+ din_mem0[21] din_mem0[22] din_mem0[23] din_mem0[24] din_mem0[25] din_mem0[26] din_mem0[27]
+ din_mem0[28] din_mem0[29] din_mem0[2] din_mem0[30] din_mem0[31] din_mem0[3] din_mem0[4]
+ din_mem0[5] din_mem0[6] din_mem0[7] din_mem0[8] din_mem0[9] din_mem1[0] din_mem1[10]
+ din_mem1[11] din_mem1[12] din_mem1[13] din_mem1[14] din_mem1[15] din_mem1[16] din_mem1[17]
+ din_mem1[18] din_mem1[19] din_mem1[1] din_mem1[20] din_mem1[21] din_mem1[22] din_mem1[23]
+ din_mem1[24] din_mem1[25] din_mem1[26] din_mem1[27] din_mem1[28] din_mem1[29] din_mem1[2]
+ din_mem1[30] din_mem1[31] din_mem1[3] din_mem1[4] din_mem1[5] din_mem1[6] din_mem1[7]
+ din_mem1[8] din_mem1[9] dout_mem0[0] dout_mem0[10] dout_mem0[11] dout_mem0[12] dout_mem0[13]
+ dout_mem0[14] dout_mem0[15] dout_mem0[16] dout_mem0[17] dout_mem0[18] dout_mem0[19]
+ dout_mem0[1] dout_mem0[20] dout_mem0[21] dout_mem0[22] dout_mem0[23] dout_mem0[24]
+ dout_mem0[25] dout_mem0[26] dout_mem0[27] dout_mem0[28] dout_mem0[29] dout_mem0[2]
+ dout_mem0[30] dout_mem0[31] dout_mem0[3] dout_mem0[4] dout_mem0[5] dout_mem0[6]
+ dout_mem0[7] dout_mem0[8] dout_mem0[9] dout_mem1[0] dout_mem1[10] dout_mem1[11]
+ dout_mem1[12] dout_mem1[13] dout_mem1[14] dout_mem1[15] dout_mem1[16] dout_mem1[17]
+ dout_mem1[18] dout_mem1[19] dout_mem1[1] dout_mem1[20] dout_mem1[21] dout_mem1[22]
+ dout_mem1[23] dout_mem1[24] dout_mem1[25] dout_mem1[26] dout_mem1[27] dout_mem1[28]
+ dout_mem1[29] dout_mem1[2] dout_mem1[30] dout_mem1[31] dout_mem1[3] dout_mem1[4]
+ dout_mem1[5] dout_mem1[6] dout_mem1[7] dout_mem1[8] dout_mem1[9] io_wbs_ack io_wbs_adr[0]
+ io_wbs_adr[10] io_wbs_adr[11] io_wbs_adr[12] io_wbs_adr[13] io_wbs_adr[14] io_wbs_adr[15]
+ io_wbs_adr[16] io_wbs_adr[17] io_wbs_adr[18] io_wbs_adr[19] io_wbs_adr[1] io_wbs_adr[20]
+ io_wbs_adr[21] io_wbs_adr[22] io_wbs_adr[23] io_wbs_adr[24] io_wbs_adr[25] io_wbs_adr[26]
+ io_wbs_adr[27] io_wbs_adr[28] io_wbs_adr[29] io_wbs_adr[2] io_wbs_adr[30] io_wbs_adr[31]
+ io_wbs_adr[3] io_wbs_adr[4] io_wbs_adr[5] io_wbs_adr[6] io_wbs_adr[7] io_wbs_adr[8]
+ io_wbs_adr[9] io_wbs_clk io_wbs_cyc io_wbs_datrd[0] io_wbs_datrd[10] io_wbs_datrd[11]
+ io_wbs_datrd[12] io_wbs_datrd[13] io_wbs_datrd[14] io_wbs_datrd[15] io_wbs_datrd[16]
+ io_wbs_datrd[17] io_wbs_datrd[18] io_wbs_datrd[19] io_wbs_datrd[1] io_wbs_datrd[20]
+ io_wbs_datrd[21] io_wbs_datrd[22] io_wbs_datrd[23] io_wbs_datrd[24] io_wbs_datrd[25]
+ io_wbs_datrd[26] io_wbs_datrd[27] io_wbs_datrd[28] io_wbs_datrd[29] io_wbs_datrd[2]
+ io_wbs_datrd[30] io_wbs_datrd[31] io_wbs_datrd[3] io_wbs_datrd[4] io_wbs_datrd[5]
+ io_wbs_datrd[6] io_wbs_datrd[7] io_wbs_datrd[8] io_wbs_datrd[9] io_wbs_datwr[0]
+ io_wbs_datwr[10] io_wbs_datwr[11] io_wbs_datwr[12] io_wbs_datwr[13] io_wbs_datwr[14]
+ io_wbs_datwr[15] io_wbs_datwr[16] io_wbs_datwr[17] io_wbs_datwr[18] io_wbs_datwr[19]
+ io_wbs_datwr[1] io_wbs_datwr[20] io_wbs_datwr[21] io_wbs_datwr[22] io_wbs_datwr[23]
+ io_wbs_datwr[24] io_wbs_datwr[25] io_wbs_datwr[26] io_wbs_datwr[27] io_wbs_datwr[28]
+ io_wbs_datwr[29] io_wbs_datwr[2] io_wbs_datwr[30] io_wbs_datwr[31] io_wbs_datwr[3]
+ io_wbs_datwr[4] io_wbs_datwr[5] io_wbs_datwr[6] io_wbs_datwr[7] io_wbs_datwr[8]
+ io_wbs_datwr[9] io_wbs_rst io_wbs_sel[0] io_wbs_sel[1] io_wbs_sel[2] io_wbs_sel[3]
+ io_wbs_stb io_wbs_we vdd vss web_mem0 web_mem1 wmask_mem0[0] wmask_mem0[1] wmask_mem0[2]
+ wmask_mem0[3] wmask_mem1[0] wmask_mem1[1] wmask_mem1[2] wmask_mem1[3]
XFILLER_41_1238 vdd vss gf180mcu_fd_sc_mcu7t5v0__fill_2
XFILLER_39_299 vdd vss gf180mcu_fd_sc_mcu7t5v0__fill_2
XFILLER_39_244 vdd vss gf180mcu_fd_sc_mcu7t5v0__fill_2
XFILLER_39_222 vdd vss gf180mcu_fd_sc_mcu7t5v0__fillcap_8
XFILLER_27_428 vdd vss gf180mcu_fd_sc_mcu7t5v0__fillcap_64
XTAP_177 vdd vss gf180mcu_fd_sc_mcu7t5v0__filltie
XTAP_188 vdd vss gf180mcu_fd_sc_mcu7t5v0__filltie
XTAP_199 vdd vss gf180mcu_fd_sc_mcu7t5v0__filltie
XFILLER_39_1145 vdd vss gf180mcu_fd_sc_mcu7t5v0__fill_2
XFILLER_39_1123 vdd vss gf180mcu_fd_sc_mcu7t5v0__fill_2
XFILLER_23_634 vdd vss gf180mcu_fd_sc_mcu7t5v0__fillcap_4
XANTENNA_input108_I io_wbs_rst vdd vss gf180mcu_fd_sc_mcu7t5v0__antenna
XFILLER_11_1064 vdd vss gf180mcu_fd_sc_mcu7t5v0__fill_1
XANTENNA_input73_I io_wbs_adr[8] vdd vss gf180mcu_fd_sc_mcu7t5v0__antenna
XANTENNA__190__S _083_ vdd vss gf180mcu_fd_sc_mcu7t5v0__antenna
XFILLER_19_918 vdd vss gf180mcu_fd_sc_mcu7t5v0__fillcap_4
XFILLER_42_954 vdd vss gf180mcu_fd_sc_mcu7t5v0__fill_1
XFILLER_41_431 vdd vss gf180mcu_fd_sc_mcu7t5v0__fill_2
XFILLER_41_420 vdd vss gf180mcu_fd_sc_mcu7t5v0__fill_2
X_432_ net105 net194 vdd vss gf180mcu_fd_sc_mcu7t5v0__clkbuf_1
XANTENNA__429__I net102 vdd vss gf180mcu_fd_sc_mcu7t5v0__antenna
XFILLER_41_464 vdd vss gf180mcu_fd_sc_mcu7t5v0__fill_2
XFILLER_13_144 vdd vss gf180mcu_fd_sc_mcu7t5v0__fillcap_64
XFILLER_9_137 vdd vss gf180mcu_fd_sc_mcu7t5v0__fillcap_4
X_294_ _158_ _159_ vdd vss gf180mcu_fd_sc_mcu7t5v0__clkbuf_1
X_363_ _062_ _027_ clknet_2_2__leaf_io_wbs_clk net215 vdd vss gf180mcu_fd_sc_mcu7t5v0__dffrnq_1
XFILLER_6_822 vdd vss gf180mcu_fd_sc_mcu7t5v0__fill_2
XFILLER_6_844 vdd vss gf180mcu_fd_sc_mcu7t5v0__fill_2
XFILLER_7_1110 vdd vss gf180mcu_fd_sc_mcu7t5v0__fill_2
XFILLER_5_354 vdd vss gf180mcu_fd_sc_mcu7t5v0__fill_1
XFILLER_36_247 vdd vss gf180mcu_fd_sc_mcu7t5v0__fill_1
XFILLER_27_1060 vdd vss gf180mcu_fd_sc_mcu7t5v0__fillcap_4
XANTENNA__275__S _139_ vdd vss gf180mcu_fd_sc_mcu7t5v0__antenna
XFILLER_34_1031 vdd vss gf180mcu_fd_sc_mcu7t5v0__fillcap_64
XFILLER_42_228 vdd vss gf180mcu_fd_sc_mcu7t5v0__fill_2
XANTENNA__185__S _077_ vdd vss gf180mcu_fd_sc_mcu7t5v0__antenna
XFILLER_17_1273 vdd vss gf180mcu_fd_sc_mcu7t5v0__fillcap_4
XFILLER_37_73 vdd vss gf180mcu_fd_sc_mcu7t5v0__fillcap_64
XFILLER_24_1244 vdd vss gf180mcu_fd_sc_mcu7t5v0__fillcap_64
XFILLER_18_247 vdd vss gf180mcu_fd_sc_mcu7t5v0__fill_1
X_415_ net90 net147 vdd vss gf180mcu_fd_sc_mcu7t5v0__clkbuf_1
XFILLER_30_957 vdd vss gf180mcu_fd_sc_mcu7t5v0__fill_1
X_346_ _045_ _010_ clknet_2_1__leaf_io_wbs_clk net228 vdd vss gf180mcu_fd_sc_mcu7t5v0__dffrnq_1
X_277_ _148_ _039_ vdd vss gf180mcu_fd_sc_mcu7t5v0__clkbuf_1
XANTENNA_clkbuf_0_io_wbs_clk_I io_wbs_clk vdd vss gf180mcu_fd_sc_mcu7t5v0__antenna
XFILLER_5_162 vdd vss gf180mcu_fd_sc_mcu7t5v0__fillcap_4
XFILLER_2_880 vdd vss gf180mcu_fd_sc_mcu7t5v0__fillcap_4
XFILLER_37_567 vdd vss gf180mcu_fd_sc_mcu7t5v0__fill_1
Xwb_memory_240 csb_mem0 vdd vss gf180mcu_fd_sc_mcu7t5v0__tiel
XANTENNA__261__I0 net29 vdd vss gf180mcu_fd_sc_mcu7t5v0__antenna
XFILLER_32_250 vdd vss gf180mcu_fd_sc_mcu7t5v0__fillcap_64
XFILLER_20_456 vdd vss gf180mcu_fd_sc_mcu7t5v0__fillcap_4
Xoutput231 net231 web_mem1 vdd vss gf180mcu_fd_sc_mcu7t5v0__clkbuf_4
XFILLER_12_1170 vdd vss gf180mcu_fd_sc_mcu7t5v0__fill_1
Xoutput220 net220 io_wbs_datrd[2] vdd vss gf180mcu_fd_sc_mcu7t5v0__clkbuf_4
XANTENNA_input36_I dout_mem1[12] vdd vss gf180mcu_fd_sc_mcu7t5v0__antenna
XFILLER_28_534 vdd vss gf180mcu_fd_sc_mcu7t5v0__fillcap_64
XFILLER_24_740 vdd vss gf180mcu_fd_sc_mcu7t5v0__fillcap_4
XFILLER_23_283 vdd vss gf180mcu_fd_sc_mcu7t5v0__fill_1
X_200_ _071_ _093_ vdd vss gf180mcu_fd_sc_mcu7t5v0__buf_2
XANTENNA__252__I0 net229 vdd vss gf180mcu_fd_sc_mcu7t5v0__antenna
XANTENNA__442__I net84 vdd vss gf180mcu_fd_sc_mcu7t5v0__antenna
XFILLER_12_957 vdd vss gf180mcu_fd_sc_mcu7t5v0__fill_1
XFILLER_2_176 vdd vss gf180mcu_fd_sc_mcu7t5v0__fill_1
XFILLER_3_633 vdd vss gf180mcu_fd_sc_mcu7t5v0__fillcap_4
XFILLER_3_655 vdd vss gf180mcu_fd_sc_mcu7t5v0__fill_1
XFILLER_19_567 vdd vss gf180mcu_fd_sc_mcu7t5v0__fill_1
XFILLER_0_57 vdd vss gf180mcu_fd_sc_mcu7t5v0__fill_2
XFILLER_4_1102 vdd vss gf180mcu_fd_sc_mcu7t5v0__fill_1
XANTENNA__243__I0 net3 vdd vss gf180mcu_fd_sc_mcu7t5v0__antenna
XFILLER_14_250 vdd vss gf180mcu_fd_sc_mcu7t5v0__fillcap_64
XFILLER_9_66 vdd vss gf180mcu_fd_sc_mcu7t5v0__fillcap_4
X_329_ _166_ _029_ vdd vss gf180mcu_fd_sc_mcu7t5v0__clkinv_1
XFILLER_31_1067 vdd vss gf180mcu_fd_sc_mcu7t5v0__fillcap_64
XFILLER_6_460 vdd vss gf180mcu_fd_sc_mcu7t5v0__fill_1
XFILLER_38_821 vdd vss gf180mcu_fd_sc_mcu7t5v0__fillcap_64
XFILLER_40_518 vdd vss gf180mcu_fd_sc_mcu7t5v0__fill_1
XFILLER_33_570 vdd vss gf180mcu_fd_sc_mcu7t5v0__fillcap_64
XANTENNA__234__I0 net203 vdd vss gf180mcu_fd_sc_mcu7t5v0__antenna
XFILLER_21_776 vdd vss gf180mcu_fd_sc_mcu7t5v0__fillcap_4
XFILLER_4_408 vdd vss gf180mcu_fd_sc_mcu7t5v0__fillcap_4
XFILLER_0_647 vdd vss gf180mcu_fd_sc_mcu7t5v0__fill_2
XFILLER_29_854 vdd vss gf180mcu_fd_sc_mcu7t5v0__fillcap_64
XANTENNA__351__CLK clknet_2_3__leaf_io_wbs_clk vdd vss gf180mcu_fd_sc_mcu7t5v0__antenna
XANTENNA__437__I net79 vdd vss gf180mcu_fd_sc_mcu7t5v0__antenna
XFILLER_8_747 vdd vss gf180mcu_fd_sc_mcu7t5v0__fillcap_64
XTAP_507 vdd vss gf180mcu_fd_sc_mcu7t5v0__filltie
XFILLER_11_286 vdd vss gf180mcu_fd_sc_mcu7t5v0__fillcap_64
XFILLER_7_279 vdd vss gf180mcu_fd_sc_mcu7t5v0__fillcap_4
XFILLER_4_975 vdd vss gf180mcu_fd_sc_mcu7t5v0__fill_1
XTAP_518 vdd vss gf180mcu_fd_sc_mcu7t5v0__filltie
XTAP_529 vdd vss gf180mcu_fd_sc_mcu7t5v0__filltie
XFILLER_3_496 vdd vss gf180mcu_fd_sc_mcu7t5v0__fill_1
XFILLER_34_389 vdd vss gf180mcu_fd_sc_mcu7t5v0__fill_1
XFILLER_15_570 vdd vss gf180mcu_fd_sc_mcu7t5v0__fillcap_64
XFILLER_7_780 vdd vss gf180mcu_fd_sc_mcu7t5v0__fill_1
XFILLER_40_326 vdd vss gf180mcu_fd_sc_mcu7t5v0__fill_2
XFILLER_14_1095 vdd vss gf180mcu_fd_sc_mcu7t5v0__fillcap_4
XFILLER_1_912 vdd vss gf180mcu_fd_sc_mcu7t5v0__fillcap_4
XFILLER_5_706 vdd vss gf180mcu_fd_sc_mcu7t5v0__fillcap_4
XFILLER_0_466 vdd vss gf180mcu_fd_sc_mcu7t5v0__fill_2
XFILLER_0_422 vdd vss gf180mcu_fd_sc_mcu7t5v0__fill_2
XFILLER_28_172 vdd vss gf180mcu_fd_sc_mcu7t5v0__fillcap_4
XFILLER_16_389 vdd vss gf180mcu_fd_sc_mcu7t5v0__fill_1
XFILLER_1_1138 vdd vss gf180mcu_fd_sc_mcu7t5v0__fill_1
XFILLER_5_1263 vdd vss gf180mcu_fd_sc_mcu7t5v0__fillcap_8
XFILLER_40_860 vdd vss gf180mcu_fd_sc_mcu7t5v0__fill_2
XFILLER_32_1173 vdd vss gf180mcu_fd_sc_mcu7t5v0__fillcap_64
XFILLER_8_566 vdd vss gf180mcu_fd_sc_mcu7t5v0__fill_1
XFILLER_6_34 vdd vss gf180mcu_fd_sc_mcu7t5v0__fill_1
XTAP_348 vdd vss gf180mcu_fd_sc_mcu7t5v0__filltie
XTAP_337 vdd vss gf180mcu_fd_sc_mcu7t5v0__filltie
XTAP_326 vdd vss gf180mcu_fd_sc_mcu7t5v0__filltie
XTAP_315 vdd vss gf180mcu_fd_sc_mcu7t5v0__filltie
XTAP_304 vdd vss gf180mcu_fd_sc_mcu7t5v0__filltie
XANTENNA__278__S _076_ vdd vss gf180mcu_fd_sc_mcu7t5v0__antenna
XFILLER_39_459 vdd vss gf180mcu_fd_sc_mcu7t5v0__fill_2
XTAP_359 vdd vss gf180mcu_fd_sc_mcu7t5v0__filltie
XFILLER_30_392 vdd vss gf180mcu_fd_sc_mcu7t5v0__fillcap_64
XFILLER_11_1202 vdd vss gf180mcu_fd_sc_mcu7t5v0__fillcap_4
XTAP_893 vdd vss gf180mcu_fd_sc_mcu7t5v0__filltie
XTAP_882 vdd vss gf180mcu_fd_sc_mcu7t5v0__filltie
XTAP_871 vdd vss gf180mcu_fd_sc_mcu7t5v0__filltie
XTAP_860 vdd vss gf180mcu_fd_sc_mcu7t5v0__filltie
XFILLER_39_982 vdd vss gf180mcu_fd_sc_mcu7t5v0__fill_2
XFILLER_39_960 vdd vss gf180mcu_fd_sc_mcu7t5v0__fill_2
XFILLER_38_470 vdd vss gf180mcu_fd_sc_mcu7t5v0__fill_2
XFILLER_26_676 vdd vss gf180mcu_fd_sc_mcu7t5v0__fillcap_64
XFILLER_0_1160 vdd vss gf180mcu_fd_sc_mcu7t5v0__fill_2
XFILLER_22_882 vdd vss gf180mcu_fd_sc_mcu7t5v0__fillcap_4
XFILLER_16_1102 vdd vss gf180mcu_fd_sc_mcu7t5v0__fillcap_64
XFILLER_0_1182 vdd vss gf180mcu_fd_sc_mcu7t5v0__fillcap_8
XANTENNA__450__I net93 vdd vss gf180mcu_fd_sc_mcu7t5v0__antenna
XFILLER_5_525 vdd vss gf180mcu_fd_sc_mcu7t5v0__fill_1
XFILLER_5_547 vdd vss gf180mcu_fd_sc_mcu7t5v0__fill_1
XFILLER_5_1082 vdd vss gf180mcu_fd_sc_mcu7t5v0__fill_1
XFILLER_32_602 vdd vss gf180mcu_fd_sc_mcu7t5v0__fill_1
XFILLER_29_492 vdd vss gf180mcu_fd_sc_mcu7t5v0__fillcap_4
XFILLER_12_392 vdd vss gf180mcu_fd_sc_mcu7t5v0__fillcap_64
XFILLER_8_385 vdd vss gf180mcu_fd_sc_mcu7t5v0__fillcap_4
XFILLER_41_1206 vdd vss gf180mcu_fd_sc_mcu7t5v0__fill_1
XFILLER_39_212 vdd vss gf180mcu_fd_sc_mcu7t5v0__fill_1
XFILLER_28_1028 vdd vss gf180mcu_fd_sc_mcu7t5v0__fill_1
XTAP_101 vdd vss gf180mcu_fd_sc_mcu7t5v0__filltie
XTAP_123 vdd vss gf180mcu_fd_sc_mcu7t5v0__filltie
XTAP_134 vdd vss gf180mcu_fd_sc_mcu7t5v0__filltie
XTAP_112 vdd vss gf180mcu_fd_sc_mcu7t5v0__filltie
XTAP_145 vdd vss gf180mcu_fd_sc_mcu7t5v0__filltie
XTAP_156 vdd vss gf180mcu_fd_sc_mcu7t5v0__filltie
XTAP_167 vdd vss gf180mcu_fd_sc_mcu7t5v0__filltie
XTAP_178 vdd vss gf180mcu_fd_sc_mcu7t5v0__filltie
XTAP_189 vdd vss gf180mcu_fd_sc_mcu7t5v0__filltie
XFILLER_39_1135 vdd vss gf180mcu_fd_sc_mcu7t5v0__fill_1
XFILLER_39_289 vdd vss gf180mcu_fd_sc_mcu7t5v0__fillcap_4
XFILLER_39_256 vdd vss gf180mcu_fd_sc_mcu7t5v0__fill_2
XFILLER_22_101 vdd vss gf180mcu_fd_sc_mcu7t5v0__fillcap_4
XFILLER_10_318 vdd vss gf180mcu_fd_sc_mcu7t5v0__fill_1
XANTENNA_input66_I io_wbs_adr[11] vdd vss gf180mcu_fd_sc_mcu7t5v0__antenna
XTAP_690 vdd vss gf180mcu_fd_sc_mcu7t5v0__filltie
XANTENNA_output222_I net222 vdd vss gf180mcu_fd_sc_mcu7t5v0__antenna
XFILLER_2_1222 vdd vss gf180mcu_fd_sc_mcu7t5v0__fill_2
XFILLER_42_944 vdd vss gf180mcu_fd_sc_mcu7t5v0__fill_1
X_431_ net104 net193 vdd vss gf180mcu_fd_sc_mcu7t5v0__clkbuf_1
XANTENNA__445__I net88 vdd vss gf180mcu_fd_sc_mcu7t5v0__antenna
XFILLER_27_996 vdd vss gf180mcu_fd_sc_mcu7t5v0__fillcap_64
XFILLER_14_602 vdd vss gf180mcu_fd_sc_mcu7t5v0__fill_1
XFILLER_2_1244 vdd vss gf180mcu_fd_sc_mcu7t5v0__fill_1
X_362_ _061_ _026_ clknet_2_3__leaf_io_wbs_clk net214 vdd vss gf180mcu_fd_sc_mcu7t5v0__dffrnq_1
XFILLER_42_52 vdd vss gf180mcu_fd_sc_mcu7t5v0__fill_2
X_293_ _157_ _158_ vdd vss gf180mcu_fd_sc_mcu7t5v0__clkbuf_1
XFILLER_6_889 vdd vss gf180mcu_fd_sc_mcu7t5v0__fillcap_16
XFILLER_5_388 vdd vss gf180mcu_fd_sc_mcu7t5v0__fill_2
XFILLER_37_705 vdd vss gf180mcu_fd_sc_mcu7t5v0__fillcap_4
XFILLER_33_922 vdd vss gf180mcu_fd_sc_mcu7t5v0__fill_1
XFILLER_36_1308 vdd vss gf180mcu_fd_sc_mcu7t5v0__fillcap_4
XFILLER_20_605 vdd vss gf180mcu_fd_sc_mcu7t5v0__fillcap_64
XFILLER_41_1036 vdd vss gf180mcu_fd_sc_mcu7t5v0__fill_2
XFILLER_41_1003 vdd vss gf180mcu_fd_sc_mcu7t5v0__fill_2
XFILLER_27_215 vdd vss gf180mcu_fd_sc_mcu7t5v0__fillcap_64
XFILLER_23_421 vdd vss gf180mcu_fd_sc_mcu7t5v0__fillcap_4
XFILLER_13_1138 vdd vss gf180mcu_fd_sc_mcu7t5v0__fillcap_64
XFILLER_11_638 vdd vss gf180mcu_fd_sc_mcu7t5v0__fill_1
XFILLER_6_108 vdd vss gf180mcu_fd_sc_mcu7t5v0__fillcap_64
XFILLER_3_859 vdd vss gf180mcu_fd_sc_mcu7t5v0__fillcap_4
XFILLER_19_705 vdd vss gf180mcu_fd_sc_mcu7t5v0__fillcap_4
XFILLER_15_922 vdd vss gf180mcu_fd_sc_mcu7t5v0__fill_1
XFILLER_2_1052 vdd vss gf180mcu_fd_sc_mcu7t5v0__fill_2
XFILLER_2_1063 vdd vss gf180mcu_fd_sc_mcu7t5v0__fill_2
XFILLER_42_752 vdd vss gf180mcu_fd_sc_mcu7t5v0__fill_2
X_414_ net89 net146 vdd vss gf180mcu_fd_sc_mcu7t5v0__clkbuf_1
X_345_ _044_ _009_ clknet_2_1__leaf_io_wbs_clk net227 vdd vss gf180mcu_fd_sc_mcu7t5v0__dffrnq_1
X_276_ net220 _147_ _145_ _148_ vdd vss gf180mcu_fd_sc_mcu7t5v0__mux2_2
XFILLER_5_141 vdd vss gf180mcu_fd_sc_mcu7t5v0__fill_1
XFILLER_9_1206 vdd vss gf180mcu_fd_sc_mcu7t5v0__fill_1
XANTENNA__261__I1 net61 vdd vss gf180mcu_fd_sc_mcu7t5v0__antenna
Xwb_memory_241 csb_mem1 vdd vss gf180mcu_fd_sc_mcu7t5v0__tiel
XFILLER_21_925 vdd vss gf180mcu_fd_sc_mcu7t5v0__fillcap_64
Xoutput232 net232 wmask_mem0[0] vdd vss gf180mcu_fd_sc_mcu7t5v0__clkbuf_4
XFILLER_0_807 vdd vss gf180mcu_fd_sc_mcu7t5v0__fill_1
Xoutput210 net210 io_wbs_datrd[20] vdd vss gf180mcu_fd_sc_mcu7t5v0__clkbuf_4
Xoutput221 net221 io_wbs_datrd[30] vdd vss gf180mcu_fd_sc_mcu7t5v0__clkbuf_4
XANTENNA_input29_I dout_mem0[6] vdd vss gf180mcu_fd_sc_mcu7t5v0__antenna
XFILLER_17_1060 vdd vss gf180mcu_fd_sc_mcu7t5v0__fillcap_4
XANTENNA__252__I1 _130_ vdd vss gf180mcu_fd_sc_mcu7t5v0__antenna
XFILLER_7_428 vdd vss gf180mcu_fd_sc_mcu7t5v0__fillcap_64
XFILLER_24_1031 vdd vss gf180mcu_fd_sc_mcu7t5v0__fillcap_64
XFILLER_3_2 vdd vss gf180mcu_fd_sc_mcu7t5v0__fillcap_64
XANTENNA__243__I1 net35 vdd vss gf180mcu_fd_sc_mcu7t5v0__antenna
XFILLER_34_527 vdd vss gf180mcu_fd_sc_mcu7t5v0__fillcap_4
XFILLER_0_69 vdd vss gf180mcu_fd_sc_mcu7t5v0__fill_1
XFILLER_4_1169 vdd vss gf180mcu_fd_sc_mcu7t5v0__fill_2
XFILLER_30_744 vdd vss gf180mcu_fd_sc_mcu7t5v0__fill_1
X_259_ net227 _134_ _135_ _136_ vdd vss gf180mcu_fd_sc_mcu7t5v0__mux2_2
X_328_ _166_ _028_ vdd vss gf180mcu_fd_sc_mcu7t5v0__clkinv_1
XFILLER_36_2 vdd vss gf180mcu_fd_sc_mcu7t5v0__fillcap_32
XFILLER_42_1197 vdd vss gf180mcu_fd_sc_mcu7t5v0__fill_1
XFILLER_42_1153 vdd vss gf180mcu_fd_sc_mcu7t5v0__fill_2
XFILLER_37_354 vdd vss gf180mcu_fd_sc_mcu7t5v0__fill_1
XANTENNA__234__I1 _117_ vdd vss gf180mcu_fd_sc_mcu7t5v0__antenna
XFILLER_20_243 vdd vss gf180mcu_fd_sc_mcu7t5v0__fillcap_4
XFILLER_14_1244 vdd vss gf180mcu_fd_sc_mcu7t5v0__fillcap_64
XFILLER_0_659 vdd vss gf180mcu_fd_sc_mcu7t5v0__fill_2
XFILLER_0_626 vdd vss gf180mcu_fd_sc_mcu7t5v0__fill_1
XFILLER_28_321 vdd vss gf180mcu_fd_sc_mcu7t5v0__fillcap_64
XFILLER_16_527 vdd vss gf180mcu_fd_sc_mcu7t5v0__fillcap_4
XFILLER_3_1180 vdd vss gf180mcu_fd_sc_mcu7t5v0__fill_2
XANTENNA__453__I net96 vdd vss gf180mcu_fd_sc_mcu7t5v0__antenna
XFILLER_12_744 vdd vss gf180mcu_fd_sc_mcu7t5v0__fill_1
XTAP_508 vdd vss gf180mcu_fd_sc_mcu7t5v0__filltie
XTAP_519 vdd vss gf180mcu_fd_sc_mcu7t5v0__filltie
XFILLER_3_464 vdd vss gf180mcu_fd_sc_mcu7t5v0__fill_2
XFILLER_3_486 vdd vss gf180mcu_fd_sc_mcu7t5v0__fillcap_4
XFILLER_19_354 vdd vss gf180mcu_fd_sc_mcu7t5v0__fill_1
XFILLER_37_1277 vdd vss gf180mcu_fd_sc_mcu7t5v0__fill_1
XFILLER_35_847 vdd vss gf180mcu_fd_sc_mcu7t5v0__fillcap_4
XFILLER_38_652 vdd vss gf180mcu_fd_sc_mcu7t5v0__fill_2
XFILLER_25_357 vdd vss gf180mcu_fd_sc_mcu7t5v0__fillcap_64
XFILLER_21_563 vdd vss gf180mcu_fd_sc_mcu7t5v0__fillcap_4
XANTENNA_input96_I io_wbs_datwr[28] vdd vss gf180mcu_fd_sc_mcu7t5v0__antenna
XFILLER_29_641 vdd vss gf180mcu_fd_sc_mcu7t5v0__fillcap_64
XFILLER_0_489 vdd vss gf180mcu_fd_sc_mcu7t5v0__fill_1
XFILLER_0_434 vdd vss gf180mcu_fd_sc_mcu7t5v0__fill_2
XFILLER_5_1231 vdd vss gf180mcu_fd_sc_mcu7t5v0__fillcap_32
XFILLER_5_1275 vdd vss gf180mcu_fd_sc_mcu7t5v0__fill_2
XANTENNA__448__I net91 vdd vss gf180mcu_fd_sc_mcu7t5v0__antenna
XFILLER_21_1067 vdd vss gf180mcu_fd_sc_mcu7t5v0__fillcap_64
XFILLER_17_847 vdd vss gf180mcu_fd_sc_mcu7t5v0__fillcap_4
XFILLER_1_1117 vdd vss gf180mcu_fd_sc_mcu7t5v0__fillcap_4
XFILLER_1_1128 vdd vss gf180mcu_fd_sc_mcu7t5v0__fill_2
XFILLER_8_534 vdd vss gf180mcu_fd_sc_mcu7t5v0__fillcap_32
XTAP_349 vdd vss gf180mcu_fd_sc_mcu7t5v0__filltie
XTAP_338 vdd vss gf180mcu_fd_sc_mcu7t5v0__filltie
XTAP_327 vdd vss gf180mcu_fd_sc_mcu7t5v0__filltie
XTAP_316 vdd vss gf180mcu_fd_sc_mcu7t5v0__filltie
XTAP_305 vdd vss gf180mcu_fd_sc_mcu7t5v0__filltie
XFILLER_6_1028 vdd vss gf180mcu_fd_sc_mcu7t5v0__fill_1
XFILLER_3_283 vdd vss gf180mcu_fd_sc_mcu7t5v0__fill_1
XFILLER_34_176 vdd vss gf180mcu_fd_sc_mcu7t5v0__fill_1
XFILLER_1_209 vdd vss gf180mcu_fd_sc_mcu7t5v0__fill_1
XANTENNA__341__CLK clknet_2_1__leaf_io_wbs_clk vdd vss gf180mcu_fd_sc_mcu7t5v0__antenna
XTAP_894 vdd vss gf180mcu_fd_sc_mcu7t5v0__filltie
XTAP_883 vdd vss gf180mcu_fd_sc_mcu7t5v0__filltie
XTAP_872 vdd vss gf180mcu_fd_sc_mcu7t5v0__filltie
XTAP_861 vdd vss gf180mcu_fd_sc_mcu7t5v0__filltie
XTAP_850 vdd vss gf180mcu_fd_sc_mcu7t5v0__filltie
XFILLER_39_972 vdd vss gf180mcu_fd_sc_mcu7t5v0__fillcap_4
XFILLER_41_614 vdd vss gf180mcu_fd_sc_mcu7t5v0__fill_2
XFILLER_40_113 vdd vss gf180mcu_fd_sc_mcu7t5v0__fill_1
XANTENNA_input11_I dout_mem0[19] vdd vss gf180mcu_fd_sc_mcu7t5v0__antenna
XFILLER_38_460 vdd vss gf180mcu_fd_sc_mcu7t5v0__fill_1
XFILLER_15_66 vdd vss gf180mcu_fd_sc_mcu7t5v0__fillcap_4
XFILLER_40_179 vdd vss gf180mcu_fd_sc_mcu7t5v0__fill_2
XFILLER_0_231 vdd vss gf180mcu_fd_sc_mcu7t5v0__fill_1
Xinput110 io_wbs_sel[1] net110 vdd vss gf180mcu_fd_sc_mcu7t5v0__clkbuf_1
XANTENNA__178__I _076_ vdd vss gf180mcu_fd_sc_mcu7t5v0__antenna
XFILLER_5_1072 vdd vss gf180mcu_fd_sc_mcu7t5v0__fill_2
XFILLER_5_1061 vdd vss gf180mcu_fd_sc_mcu7t5v0__fillcap_4
XFILLER_32_669 vdd vss gf180mcu_fd_sc_mcu7t5v0__fillcap_4
XFILLER_16_176 vdd vss gf180mcu_fd_sc_mcu7t5v0__fill_1
XFILLER_9_854 vdd vss gf180mcu_fd_sc_mcu7t5v0__fillcap_64
XANTENNA__364__CLK clknet_2_2__leaf_io_wbs_clk vdd vss gf180mcu_fd_sc_mcu7t5v0__antenna
XFILLER_40_691 vdd vss gf180mcu_fd_sc_mcu7t5v0__fillcap_4
XANTENNA_input3_I dout_mem0[11] vdd vss gf180mcu_fd_sc_mcu7t5v0__antenna
XFILLER_39_268 vdd vss gf180mcu_fd_sc_mcu7t5v0__fill_2
XFILLER_39_202 vdd vss gf180mcu_fd_sc_mcu7t5v0__fill_2
XTAP_102 vdd vss gf180mcu_fd_sc_mcu7t5v0__filltie
XTAP_124 vdd vss gf180mcu_fd_sc_mcu7t5v0__filltie
XTAP_135 vdd vss gf180mcu_fd_sc_mcu7t5v0__filltie
XTAP_113 vdd vss gf180mcu_fd_sc_mcu7t5v0__filltie
XTAP_146 vdd vss gf180mcu_fd_sc_mcu7t5v0__filltie
XTAP_157 vdd vss gf180mcu_fd_sc_mcu7t5v0__filltie
XTAP_168 vdd vss gf180mcu_fd_sc_mcu7t5v0__filltie
XTAP_179 vdd vss gf180mcu_fd_sc_mcu7t5v0__filltie
XFILLER_39_1169 vdd vss gf180mcu_fd_sc_mcu7t5v0__fill_2
XFILLER_39_1103 vdd vss gf180mcu_fd_sc_mcu7t5v0__fill_2
XFILLER_39_279 vdd vss gf180mcu_fd_sc_mcu7t5v0__fillcap_4
XFILLER_36_953 vdd vss gf180mcu_fd_sc_mcu7t5v0__fillcap_4
XFILLER_35_496 vdd vss gf180mcu_fd_sc_mcu7t5v0__fill_1
XFILLER_22_179 vdd vss gf180mcu_fd_sc_mcu7t5v0__fillcap_64
XANTENNA_input59_I dout_mem1[4] vdd vss gf180mcu_fd_sc_mcu7t5v0__antenna
XFILLER_39_780 vdd vss gf180mcu_fd_sc_mcu7t5v0__fill_1
XTAP_691 vdd vss gf180mcu_fd_sc_mcu7t5v0__filltie
XTAP_680 vdd vss gf180mcu_fd_sc_mcu7t5v0__filltie
XFILLER_22_1173 vdd vss gf180mcu_fd_sc_mcu7t5v0__fillcap_64
XANTENNA_output215_I net215 vdd vss gf180mcu_fd_sc_mcu7t5v0__antenna
XFILLER_2_1234 vdd vss gf180mcu_fd_sc_mcu7t5v0__fill_2
XFILLER_42_978 vdd vss gf180mcu_fd_sc_mcu7t5v0__fill_2
XFILLER_42_912 vdd vss gf180mcu_fd_sc_mcu7t5v0__fill_1
XFILLER_41_499 vdd vss gf180mcu_fd_sc_mcu7t5v0__fill_2
XFILLER_41_422 vdd vss gf180mcu_fd_sc_mcu7t5v0__fill_1
X_430_ net103 net192 vdd vss gf180mcu_fd_sc_mcu7t5v0__clkbuf_1
XFILLER_26_463 vdd vss gf180mcu_fd_sc_mcu7t5v0__fillcap_64
XFILLER_14_669 vdd vss gf180mcu_fd_sc_mcu7t5v0__fillcap_4
X_292_ net108 _157_ vdd vss gf180mcu_fd_sc_mcu7t5v0__clkbuf_1
X_361_ _060_ _025_ clknet_2_2__leaf_io_wbs_clk net213 vdd vss gf180mcu_fd_sc_mcu7t5v0__dffrnq_1
XANTENNA__461__I net109 vdd vss gf180mcu_fd_sc_mcu7t5v0__antenna
XFILLER_33_1280 vdd vss gf180mcu_fd_sc_mcu7t5v0__fillcap_32
XFILLER_10_886 vdd vss gf180mcu_fd_sc_mcu7t5v0__fill_1
XFILLER_6_824 vdd vss gf180mcu_fd_sc_mcu7t5v0__fill_1
XFILLER_7_1134 vdd vss gf180mcu_fd_sc_mcu7t5v0__fill_2
XFILLER_40_1284 vdd vss gf180mcu_fd_sc_mcu7t5v0__fill_2
XFILLER_40_1262 vdd vss gf180mcu_fd_sc_mcu7t5v0__fill_2
XFILLER_40_1251 vdd vss gf180mcu_fd_sc_mcu7t5v0__fillcap_4
XFILLER_18_953 vdd vss gf180mcu_fd_sc_mcu7t5v0__fillcap_4
XFILLER_17_496 vdd vss gf180mcu_fd_sc_mcu7t5v0__fill_1
XFILLER_34_1099 vdd vss gf180mcu_fd_sc_mcu7t5v0__fill_1
XFILLER_33_989 vdd vss gf180mcu_fd_sc_mcu7t5v0__fillcap_4
XFILLER_8_172 vdd vss gf180mcu_fd_sc_mcu7t5v0__fillcap_4
XFILLER_23_499 vdd vss gf180mcu_fd_sc_mcu7t5v0__fillcap_64
XFILLER_10_105 vdd vss gf180mcu_fd_sc_mcu7t5v0__fill_1
XANTENNA_input113_I io_wbs_stb vdd vss gf180mcu_fd_sc_mcu7t5v0__antenna
XFILLER_12_34 vdd vss gf180mcu_fd_sc_mcu7t5v0__fill_1
XFILLER_2_315 vdd vss gf180mcu_fd_sc_mcu7t5v0__fillcap_4
XFILLER_4_1307 vdd vss gf180mcu_fd_sc_mcu7t5v0__fillcap_4
XANTENNA__456__I net100 vdd vss gf180mcu_fd_sc_mcu7t5v0__antenna
X_413_ net88 net145 vdd vss gf180mcu_fd_sc_mcu7t5v0__clkbuf_1
XFILLER_33_208 vdd vss gf180mcu_fd_sc_mcu7t5v0__fillcap_4
XFILLER_27_783 vdd vss gf180mcu_fd_sc_mcu7t5v0__fillcap_64
XFILLER_2_1031 vdd vss gf180mcu_fd_sc_mcu7t5v0__fill_1
XFILLER_42_775 vdd vss gf180mcu_fd_sc_mcu7t5v0__fill_2
X_275_ net23 net55 _139_ _147_ vdd vss gf180mcu_fd_sc_mcu7t5v0__mux2_2
XFILLER_31_1206 vdd vss gf180mcu_fd_sc_mcu7t5v0__fill_1
XFILLER_18_1028 vdd vss gf180mcu_fd_sc_mcu7t5v0__fill_1
XFILLER_15_989 vdd vss gf180mcu_fd_sc_mcu7t5v0__fillcap_4
X_344_ _043_ _008_ clknet_2_1__leaf_io_wbs_clk net226 vdd vss gf180mcu_fd_sc_mcu7t5v0__dffrnq_1
XFILLER_29_1135 vdd vss gf180mcu_fd_sc_mcu7t5v0__fill_1
XFILLER_6_676 vdd vss gf180mcu_fd_sc_mcu7t5v0__fillcap_64
XFILLER_37_547 vdd vss gf180mcu_fd_sc_mcu7t5v0__fill_2
XFILLER_1_392 vdd vss gf180mcu_fd_sc_mcu7t5v0__fillcap_8
XFILLER_1_370 vdd vss gf180mcu_fd_sc_mcu7t5v0__fillcap_16
XFILLER_25_709 vdd vss gf180mcu_fd_sc_mcu7t5v0__fill_1
XFILLER_9_492 vdd vss gf180mcu_fd_sc_mcu7t5v0__fillcap_4
Xoutput200 net200 io_wbs_datrd[11] vdd vss gf180mcu_fd_sc_mcu7t5v0__clkbuf_4
Xoutput233 net233 wmask_mem0[1] vdd vss gf180mcu_fd_sc_mcu7t5v0__clkbuf_4
Xoutput211 net211 io_wbs_datrd[21] vdd vss gf180mcu_fd_sc_mcu7t5v0__clkbuf_4
Xoutput222 net222 io_wbs_datrd[31] vdd vss gf180mcu_fd_sc_mcu7t5v0__clkbuf_4
XFILLER_15_208 vdd vss gf180mcu_fd_sc_mcu7t5v0__fillcap_4
XFILLER_23_66 vdd vss gf180mcu_fd_sc_mcu7t5v0__fillcap_4
XFILLER_11_425 vdd vss gf180mcu_fd_sc_mcu7t5v0__fill_1
XFILLER_2_134 vdd vss gf180mcu_fd_sc_mcu7t5v0__fill_2
XFILLER_26_1308 vdd vss gf180mcu_fd_sc_mcu7t5v0__fillcap_4
XFILLER_4_1137 vdd vss gf180mcu_fd_sc_mcu7t5v0__fill_2
XFILLER_0_37 vdd vss gf180mcu_fd_sc_mcu7t5v0__fill_2
XANTENNA__186__I _071_ vdd vss gf180mcu_fd_sc_mcu7t5v0__antenna
X_189_ net19 net51 _077_ _085_ vdd vss gf180mcu_fd_sc_mcu7t5v0__mux2_2
XFILLER_42_594 vdd vss gf180mcu_fd_sc_mcu7t5v0__fill_1
X_258_ _104_ _135_ vdd vss gf180mcu_fd_sc_mcu7t5v0__buf_2
X_327_ _166_ _027_ vdd vss gf180mcu_fd_sc_mcu7t5v0__clkinv_1
XFILLER_29_2 vdd vss gf180mcu_fd_sc_mcu7t5v0__fillcap_64
XFILLER_7_996 vdd vss gf180mcu_fd_sc_mcu7t5v0__fillcap_64
XFILLER_38_889 vdd vss gf180mcu_fd_sc_mcu7t5v0__fillcap_32
XFILLER_40_509 vdd vss gf180mcu_fd_sc_mcu7t5v0__fill_1
XFILLER_21_712 vdd vss gf180mcu_fd_sc_mcu7t5v0__fillcap_64
XANTENNA_input41_I dout_mem1[17] vdd vss gf180mcu_fd_sc_mcu7t5v0__antenna
XFILLER_0_616 vdd vss gf180mcu_fd_sc_mcu7t5v0__fill_2
XANTENNA_output128_I net128 vdd vss gf180mcu_fd_sc_mcu7t5v0__antenna
XFILLER_3_1192 vdd vss gf180mcu_fd_sc_mcu7t5v0__fillcap_8
XFILLER_32_1312 vdd vss gf180mcu_fd_sc_mcu7t5v0__fill_1
XFILLER_7_215 vdd vss gf180mcu_fd_sc_mcu7t5v0__fillcap_64
XTAP_509 vdd vss gf180mcu_fd_sc_mcu7t5v0__filltie
XFILLER_3_476 vdd vss gf180mcu_fd_sc_mcu7t5v0__fillcap_4
XFILLER_38_108 vdd vss gf180mcu_fd_sc_mcu7t5v0__fillcap_32
XFILLER_34_314 vdd vss gf180mcu_fd_sc_mcu7t5v0__fillcap_4