*SPEF "ieee 1481-1999"
*DESIGN "merge_memory"
*DATE "11:11:11 Fri 11 11, 1111"
*VENDOR "OpenRCX"
*PROGRAM "Parallel Extraction"
*VERSION "1.0"
*DESIGN_FLOW "NAME_SCOPE LOCAL" "PIN_CAP NONE"
*DIVIDER /
*DELIMITER :
*BUS_DELIMITER []
*T_UNIT 1 NS
*C_UNIT 1 PF
*R_UNIT 1 OHM
*L_UNIT 1 HENRY

*NAME_MAP
*1 addr[0]
*2 addr[1]
*3 addr[2]
*4 addr[3]
*5 addr[4]
*6 addr[5]
*7 addr[6]
*8 addr[7]
*9 addr[8]
*10 addr[9]
*11 addr_mem0[0]
*12 addr_mem0[1]
*13 addr_mem0[2]
*14 addr_mem0[3]
*15 addr_mem0[4]
*16 addr_mem0[5]
*17 addr_mem0[6]
*18 addr_mem0[7]
*19 addr_mem0[8]
*20 addr_mem1[0]
*21 addr_mem1[1]
*22 addr_mem1[2]
*23 addr_mem1[3]
*24 addr_mem1[4]
*25 addr_mem1[5]
*26 addr_mem1[6]
*27 addr_mem1[7]
*28 addr_mem1[8]
*29 csb
*30 csb_mem0
*31 csb_mem1
*32 dout[0]
*33 dout[10]
*34 dout[11]
*35 dout[12]
*36 dout[13]
*37 dout[14]
*38 dout[15]
*39 dout[16]
*40 dout[17]
*41 dout[18]
*42 dout[19]
*43 dout[1]
*44 dout[20]
*45 dout[21]
*46 dout[22]
*47 dout[23]
*48 dout[24]
*49 dout[25]
*50 dout[26]
*51 dout[27]
*52 dout[28]
*53 dout[29]
*54 dout[2]
*55 dout[30]
*56 dout[31]
*57 dout[3]
*58 dout[4]
*59 dout[5]
*60 dout[6]
*61 dout[7]
*62 dout[8]
*63 dout[9]
*64 dout_mem0[0]
*65 dout_mem0[10]
*66 dout_mem0[11]
*67 dout_mem0[12]
*68 dout_mem0[13]
*69 dout_mem0[14]
*70 dout_mem0[15]
*71 dout_mem0[16]
*72 dout_mem0[17]
*73 dout_mem0[18]
*74 dout_mem0[19]
*75 dout_mem0[1]
*76 dout_mem0[20]
*77 dout_mem0[21]
*78 dout_mem0[22]
*79 dout_mem0[23]
*80 dout_mem0[24]
*81 dout_mem0[25]
*82 dout_mem0[26]
*83 dout_mem0[27]
*84 dout_mem0[28]
*85 dout_mem0[29]
*86 dout_mem0[2]
*87 dout_mem0[30]
*88 dout_mem0[31]
*89 dout_mem0[3]
*90 dout_mem0[4]
*91 dout_mem0[5]
*92 dout_mem0[6]
*93 dout_mem0[7]
*94 dout_mem0[8]
*95 dout_mem0[9]
*96 dout_mem1[0]
*97 dout_mem1[10]
*98 dout_mem1[11]
*99 dout_mem1[12]
*100 dout_mem1[13]
*101 dout_mem1[14]
*102 dout_mem1[15]
*103 dout_mem1[16]
*104 dout_mem1[17]
*105 dout_mem1[18]
*106 dout_mem1[19]
*107 dout_mem1[1]
*108 dout_mem1[20]
*109 dout_mem1[21]
*110 dout_mem1[22]
*111 dout_mem1[23]
*112 dout_mem1[24]
*113 dout_mem1[25]
*114 dout_mem1[26]
*115 dout_mem1[27]
*116 dout_mem1[28]
*117 dout_mem1[29]
*118 dout_mem1[2]
*119 dout_mem1[30]
*120 dout_mem1[31]
*121 dout_mem1[3]
*122 dout_mem1[4]
*123 dout_mem1[5]
*124 dout_mem1[6]
*125 dout_mem1[7]
*126 dout_mem1[8]
*127 dout_mem1[9]
*130 _000_
*131 _001_
*132 _002_
*133 _003_
*134 _004_
*135 _005_
*136 _006_
*137 _007_
*138 _008_
*139 _009_
*140 _010_
*141 _011_
*142 _012_
*143 _013_
*144 _014_
*145 _015_
*146 _016_
*147 _017_
*148 _018_
*149 _019_
*150 _020_
*151 _021_
*152 _022_
*153 _023_
*154 _024_
*155 _025_
*156 _026_
*157 _027_
*158 _028_
*159 _029_
*160 _030_
*161 _031_
*162 _032_
*163 _033_
*164 _034_
*165 _035_
*166 _036_
*167 _037_
*168 _038_
*169 _039_
*170 _040_
*171 _041_
*172 net1
*173 net10
*174 net100
*175 net101
*176 net102
*177 net103
*178 net104
*179 net105
*180 net106
*181 net107
*182 net108
*183 net109
*184 net11
*185 net110
*186 net111
*187 net112
*188 net113
*189 net114
*190 net115
*191 net116
*192 net117
*193 net118
*194 net119
*195 net12
*196 net120
*197 net121
*198 net122
*199 net123
*200 net124
*201 net125
*202 net126
*203 net127
*204 net13
*205 net14
*206 net15
*207 net16
*208 net17
*209 net18
*210 net19
*211 net2
*212 net20
*213 net21
*214 net22
*215 net23
*216 net24
*217 net25
*218 net26
*219 net27
*220 net28
*221 net29
*222 net3
*223 net30
*224 net31
*225 net32
*226 net33
*227 net34
*228 net35
*229 net36
*230 net37
*231 net38
*232 net39
*233 net4
*234 net40
*235 net41
*236 net42
*237 net43
*238 net44
*239 net45
*240 net46
*241 net47
*242 net48
*243 net49
*244 net5
*245 net50
*246 net51
*247 net52
*248 net53
*249 net54
*250 net55
*251 net56
*252 net57
*253 net58
*254 net59
*255 net6
*256 net60
*257 net61
*258 net62
*259 net63
*260 net64
*261 net65
*262 net66
*263 net67
*264 net68
*265 net69
*266 net7
*267 net70
*268 net71
*269 net72
*270 net73
*271 net74
*272 net75
*273 net76
*274 net77
*275 net78
*276 net79
*277 net8
*278 net80
*279 net81
*280 net82
*281 net83
*282 net84
*283 net85
*284 net86
*285 net87
*286 net88
*287 net89
*288 net9
*289 net90
*290 net91
*291 net92
*292 net93
*293 net94
*294 net95
*295 net96
*296 net97
*297 net98
*298 net99
*299 ANTENNA__042__I
*300 ANTENNA__043__I
*301 ANTENNA__044__I0
*302 ANTENNA__046__I0
*303 ANTENNA__048__I0
*304 ANTENNA__050__I0
*305 ANTENNA__052__I
*306 ANTENNA__053__I0
*307 ANTENNA__055__I0
*308 ANTENNA__057__I0
*309 ANTENNA__059__I0
*310 ANTENNA__061__I
*311 ANTENNA__062__I0
*312 ANTENNA__064__I0
*313 ANTENNA__066__I0
*314 ANTENNA__068__I0
*315 ANTENNA__070__I
*316 ANTENNA__071__I0
*317 ANTENNA__071__S
*318 ANTENNA__073__I0
*319 ANTENNA__073__S
*320 ANTENNA__075__I0
*321 ANTENNA__075__S
*322 ANTENNA__077__I0
*323 ANTENNA__077__I1
*324 ANTENNA__077__S
*325 ANTENNA__079__I
*326 ANTENNA__080__I
*327 ANTENNA__081__I0
*328 ANTENNA__083__I0
*329 ANTENNA__085__I0
*330 ANTENNA__086__I
*331 ANTENNA__087__I0
*332 ANTENNA__089__I
*333 ANTENNA__090__I0
*334 ANTENNA__092__I0
*335 ANTENNA__094__I0
*336 ANTENNA__096__I0
*337 ANTENNA__098__I
*338 ANTENNA__099__I0
*339 ANTENNA__101__I0
*340 ANTENNA__102__I
*341 ANTENNA__103__I0
*342 ANTENNA__105__I0
*343 ANTENNA__107__I
*344 ANTENNA__108__I0
*345 ANTENNA__110__I0
*346 ANTENNA__112__I0
*347 ANTENNA__114__I0
*348 ANTENNA__116__I
*349 ANTENNA__117__I
*350 ANTENNA__118__I
*351 ANTENNA__119__I
*352 ANTENNA__120__I
*353 ANTENNA__121__I
*354 ANTENNA__122__I
*355 ANTENNA__123__I
*356 ANTENNA__124__I
*357 ANTENNA__125__I
*358 ANTENNA__126__I
*359 ANTENNA__127__I
*360 ANTENNA__128__I
*361 ANTENNA__129__I
*362 ANTENNA__130__I
*363 ANTENNA__131__I
*364 ANTENNA__132__I
*365 ANTENNA__133__I
*366 ANTENNA__134__I
*367 ANTENNA__135__I
*368 ANTENNA_input10_I
*369 ANTENNA_input11_I
*370 ANTENNA_input12_I
*371 ANTENNA_input13_I
*372 ANTENNA_input14_I
*373 ANTENNA_input15_I
*374 ANTENNA_input16_I
*375 ANTENNA_input17_I
*376 ANTENNA_input18_I
*377 ANTENNA_input19_I
*378 ANTENNA_input1_I
*379 ANTENNA_input20_I
*380 ANTENNA_input21_I
*381 ANTENNA_input22_I
*382 ANTENNA_input23_I
*383 ANTENNA_input24_I
*384 ANTENNA_input25_I
*385 ANTENNA_input26_I
*386 ANTENNA_input27_I
*387 ANTENNA_input28_I
*388 ANTENNA_input29_I
*389 ANTENNA_input2_I
*390 ANTENNA_input30_I
*391 ANTENNA_input31_I
*392 ANTENNA_input32_I
*393 ANTENNA_input33_I
*394 ANTENNA_input34_I
*395 ANTENNA_input35_I
*396 ANTENNA_input36_I
*397 ANTENNA_input37_I
*398 ANTENNA_input38_I
*399 ANTENNA_input39_I
*400 ANTENNA_input3_I
*401 ANTENNA_input40_I
*402 ANTENNA_input41_I
*403 ANTENNA_input42_I
*404 ANTENNA_input43_I
*405 ANTENNA_input44_I
*406 ANTENNA_input45_I
*407 ANTENNA_input46_I
*408 ANTENNA_input47_I
*409 ANTENNA_input48_I
*410 ANTENNA_input49_I
*411 ANTENNA_input4_I
*412 ANTENNA_input50_I
*413 ANTENNA_input51_I
*414 ANTENNA_input52_I
*415 ANTENNA_input53_I
*416 ANTENNA_input54_I
*417 ANTENNA_input55_I
*418 ANTENNA_input56_I
*419 ANTENNA_input57_I
*420 ANTENNA_input58_I
*421 ANTENNA_input59_I
*422 ANTENNA_input5_I
*423 ANTENNA_input60_I
*424 ANTENNA_input61_I
*425 ANTENNA_input62_I
*426 ANTENNA_input63_I
*427 ANTENNA_input64_I
*428 ANTENNA_input65_I
*429 ANTENNA_input66_I
*430 ANTENNA_input67_I
*431 ANTENNA_input68_I
*432 ANTENNA_input69_I
*433 ANTENNA_input6_I
*434 ANTENNA_input70_I
*435 ANTENNA_input71_I
*436 ANTENNA_input72_I
*437 ANTENNA_input73_I
*438 ANTENNA_input74_I
*439 ANTENNA_input75_I
*440 ANTENNA_input7_I
*441 ANTENNA_input8_I
*442 ANTENNA_input9_I
*443 ANTENNA_output100_I
*444 ANTENNA_output101_I
*445 ANTENNA_output102_I
*446 ANTENNA_output103_I
*447 ANTENNA_output104_I
*448 ANTENNA_output105_I
*449 ANTENNA_output106_I
*450 ANTENNA_output107_I
*451 ANTENNA_output108_I
*452 ANTENNA_output109_I
*453 ANTENNA_output110_I
*454 ANTENNA_output111_I
*455 ANTENNA_output112_I
*456 ANTENNA_output113_I
*457 ANTENNA_output114_I
*458 ANTENNA_output115_I
*459 ANTENNA_output116_I
*460 ANTENNA_output117_I
*461 ANTENNA_output118_I
*462 ANTENNA_output119_I
*463 ANTENNA_output120_I
*464 ANTENNA_output121_I
*465 ANTENNA_output122_I
*466 ANTENNA_output123_I
*467 ANTENNA_output124_I
*468 ANTENNA_output125_I
*469 ANTENNA_output126_I
*470 ANTENNA_output127_I
*471 ANTENNA_output76_I
*472 ANTENNA_output77_I
*473 ANTENNA_output78_I
*474 ANTENNA_output79_I
*475 ANTENNA_output80_I
*476 ANTENNA_output81_I
*477 ANTENNA_output82_I
*478 ANTENNA_output83_I
*479 ANTENNA_output84_I
*480 ANTENNA_output94_I
*481 ANTENNA_output96_I
*482 ANTENNA_output97_I
*483 ANTENNA_output98_I
*484 ANTENNA_output99_I
*485 FILLER_0_1006
*486 FILLER_0_1014
*487 FILLER_0_1017
*488 FILLER_0_1033
*489 FILLER_0_104
*490 FILLER_0_1041
*491 FILLER_0_1049
*492 FILLER_0_1052
*493 FILLER_0_1068
*494 FILLER_0_107
*495 FILLER_0_1076
*496 FILLER_0_1084
*497 FILLER_0_1087
*498 FILLER_0_1103
*499 FILLER_0_1111
*500 FILLER_0_1115
*501 FILLER_0_1119
*502 FILLER_0_1122
*503 FILLER_0_1129
*504 FILLER_0_1133
*505 FILLER_0_1152
*506 FILLER_0_1154
*507 FILLER_0_1157
*508 FILLER_0_1173
*509 FILLER_0_1181
*510 FILLER_0_1189
*511 FILLER_0_1192
*512 FILLER_0_1211
*513 FILLER_0_1219
*514 FILLER_0_1223
*515 FILLER_0_1227
*516 FILLER_0_123
*517 FILLER_0_1243
*518 FILLER_0_1251
*519 FILLER_0_1259
*520 FILLER_0_1262
*521 FILLER_0_1278
*522 FILLER_0_1286
*523 FILLER_0_1290
*524 FILLER_0_1294
*525 FILLER_0_1297
*526 FILLER_0_1304
*527 FILLER_0_1312
*528 FILLER_0_139
*529 FILLER_0_142
*530 FILLER_0_145
*531 FILLER_0_153
*532 FILLER_0_169
*533 FILLER_0_173
*534 FILLER_0_177
*535 FILLER_0_192
*536 FILLER_0_198
*537 FILLER_0_2
*538 FILLER_0_206
*539 FILLER_0_212
*540 FILLER_0_214
*541 FILLER_0_221
*542 FILLER_0_225
*543 FILLER_0_228
*544 FILLER_0_236
*545 FILLER_0_240
*546 FILLER_0_244
*547 FILLER_0_247
*548 FILLER_0_254
*549 FILLER_0_258
*550 FILLER_0_266
*551 FILLER_0_270
*552 FILLER_0_272
*553 FILLER_0_279
*554 FILLER_0_282
*555 FILLER_0_288
*556 FILLER_0_296
*557 FILLER_0_300
*558 FILLER_0_303
*559 FILLER_0_311
*560 FILLER_0_317
*561 FILLER_0_319
*562 FILLER_0_326
*563 FILLER_0_330
*564 FILLER_0_333
*565 FILLER_0_34
*566 FILLER_0_341
*567 FILLER_0_345
*568 FILLER_0_349
*569 FILLER_0_352
*570 FILLER_0_359
*571 FILLER_0_363
*572 FILLER_0_37
*573 FILLER_0_371
*574 FILLER_0_375
*575 FILLER_0_377
*576 FILLER_0_384
*577 FILLER_0_387
*578 FILLER_0_393
*579 FILLER_0_401
*580 FILLER_0_405
*581 FILLER_0_408
*582 FILLER_0_416
*583 FILLER_0_422
*584 FILLER_0_424
*585 FILLER_0_431
*586 FILLER_0_435
*587 FILLER_0_438
*588 FILLER_0_446
*589 FILLER_0_450
*590 FILLER_0_454
*591 FILLER_0_457
*592 FILLER_0_464
*593 FILLER_0_468
*594 FILLER_0_476
*595 FILLER_0_480
*596 FILLER_0_482
*597 FILLER_0_489
*598 FILLER_0_492
*599 FILLER_0_498
*600 FILLER_0_506
*601 FILLER_0_510
*602 FILLER_0_513
*603 FILLER_0_52
*604 FILLER_0_521
*605 FILLER_0_527
*606 FILLER_0_529
*607 FILLER_0_536
*608 FILLER_0_54
*609 FILLER_0_540
*610 FILLER_0_543
*611 FILLER_0_551
*612 FILLER_0_555
*613 FILLER_0_559
*614 FILLER_0_562
*615 FILLER_0_569
*616 FILLER_0_573
*617 FILLER_0_581
*618 FILLER_0_585
*619 FILLER_0_587
*620 FILLER_0_594
*621 FILLER_0_597
*622 FILLER_0_603
*623 FILLER_0_611
*624 FILLER_0_615
*625 FILLER_0_618
*626 FILLER_0_626
*627 FILLER_0_632
*628 FILLER_0_640
*629 FILLER_0_648
*630 FILLER_0_656
*631 FILLER_0_664
*632 FILLER_0_667
*633 FILLER_0_682
*634 FILLER_0_69
*635 FILLER_0_698
*636 FILLER_0_702
*637 FILLER_0_717
*638 FILLER_0_72
*639 FILLER_0_733
*640 FILLER_0_737
*641 FILLER_0_739
*642 FILLER_0_754
*643 FILLER_0_762
*644 FILLER_0_766
*645 FILLER_0_772
*646 FILLER_0_787
*647 FILLER_0_803
*648 FILLER_0_807
*649 FILLER_0_822
*650 FILLER_0_830
*651 FILLER_0_838
*652 FILLER_0_842
*653 FILLER_0_844
*654 FILLER_0_851
*655 FILLER_0_857
*656 FILLER_0_874
*657 FILLER_0_877
*658 FILLER_0_88
*659 FILLER_0_893
*660 FILLER_0_901
*661 FILLER_0_909
*662 FILLER_0_912
*663 FILLER_0_928
*664 FILLER_0_936
*665 FILLER_0_944
*666 FILLER_0_947
*667 FILLER_0_949
*668 FILLER_0_956
*669 FILLER_0_960
*670 FILLER_0_962
*671 FILLER_0_978
*672 FILLER_0_982
*673 FILLER_0_998
*674 FILLER_10_101
*675 FILLER_10_1024
*676 FILLER_10_1028
*677 FILLER_10_1031
*678 FILLER_10_105
*679 FILLER_10_108
*680 FILLER_10_1095
*681 FILLER_10_1099
*682 FILLER_10_1102
*683 FILLER_10_1166
*684 FILLER_10_1170
*685 FILLER_10_1173
*686 FILLER_10_1237
*687 FILLER_10_1241
*688 FILLER_10_1244
*689 FILLER_10_1276
*690 FILLER_10_1292
*691 FILLER_10_1296
*692 FILLER_10_1312
*693 FILLER_10_172
*694 FILLER_10_176
*695 FILLER_10_179
*696 FILLER_10_2
*697 FILLER_10_243
*698 FILLER_10_247
*699 FILLER_10_250
*700 FILLER_10_314
*701 FILLER_10_318
*702 FILLER_10_321
*703 FILLER_10_34
*704 FILLER_10_37
*705 FILLER_10_385
*706 FILLER_10_389
*707 FILLER_10_392
*708 FILLER_10_456
*709 FILLER_10_460
*710 FILLER_10_463
*711 FILLER_10_527
*712 FILLER_10_531
*713 FILLER_10_534
*714 FILLER_10_598
*715 FILLER_10_602
*716 FILLER_10_605
*717 FILLER_10_669
*718 FILLER_10_673
*719 FILLER_10_676
*720 FILLER_10_740
*721 FILLER_10_744
*722 FILLER_10_747
*723 FILLER_10_811
*724 FILLER_10_815
*725 FILLER_10_818
*726 FILLER_10_850
*727 FILLER_10_866
*728 FILLER_10_874
*729 FILLER_10_881
*730 FILLER_10_885
*731 FILLER_10_889
*732 FILLER_10_953
*733 FILLER_10_957
*734 FILLER_10_960
*735 FILLER_11_1060
*736 FILLER_11_1064
*737 FILLER_11_1067
*738 FILLER_11_1131
*739 FILLER_11_1135
*740 FILLER_11_1138
*741 FILLER_11_1202
*742 FILLER_11_1206
*743 FILLER_11_1209
*744 FILLER_11_1273
*745 FILLER_11_1277
*746 FILLER_11_1280
*747 FILLER_11_1288
*748 FILLER_11_1292
*749 FILLER_11_1296
*750 FILLER_11_1312
*751 FILLER_11_137
*752 FILLER_11_141
*753 FILLER_11_144
*754 FILLER_11_2
*755 FILLER_11_208
*756 FILLER_11_212
*757 FILLER_11_215
*758 FILLER_11_279
*759 FILLER_11_283
*760 FILLER_11_286
*761 FILLER_11_350
*762 FILLER_11_354
*763 FILLER_11_357
*764 FILLER_11_421
*765 FILLER_11_425
*766 FILLER_11_428
*767 FILLER_11_492
*768 FILLER_11_496
*769 FILLER_11_499
*770 FILLER_11_563
*771 FILLER_11_567
*772 FILLER_11_570
*773 FILLER_11_634
*774 FILLER_11_638
*775 FILLER_11_641
*776 FILLER_11_66
*777 FILLER_11_70
*778 FILLER_11_705
*779 FILLER_11_709
*780 FILLER_11_712
*781 FILLER_11_73
*782 FILLER_11_776
*783 FILLER_11_780
*784 FILLER_11_783
*785 FILLER_11_847
*786 FILLER_11_851
*787 FILLER_11_854
*788 FILLER_11_870
*789 FILLER_11_878
*790 FILLER_11_882
*791 FILLER_11_889
*792 FILLER_11_893
*793 FILLER_11_909
*794 FILLER_11_917
*795 FILLER_11_921
*796 FILLER_11_925
*797 FILLER_11_989
*798 FILLER_11_993
*799 FILLER_11_996
*800 FILLER_12_101
*801 FILLER_12_1024
*802 FILLER_12_1028
*803 FILLER_12_1031
*804 FILLER_12_105
*805 FILLER_12_108
*806 FILLER_12_1095
*807 FILLER_12_1099
*808 FILLER_12_1102
*809 FILLER_12_1166
*810 FILLER_12_1170
*811 FILLER_12_1173
*812 FILLER_12_1237
*813 FILLER_12_1241
*814 FILLER_12_1244
*815 FILLER_12_1276
*816 FILLER_12_1292
*817 FILLER_12_1296
*818 FILLER_12_1312
*819 FILLER_12_172
*820 FILLER_12_176
*821 FILLER_12_179
*822 FILLER_12_2
*823 FILLER_12_243
*824 FILLER_12_247
*825 FILLER_12_250
*826 FILLER_12_314
*827 FILLER_12_318
*828 FILLER_12_321
*829 FILLER_12_34
*830 FILLER_12_37
*831 FILLER_12_385
*832 FILLER_12_389
*833 FILLER_12_392
*834 FILLER_12_456
*835 FILLER_12_460
*836 FILLER_12_463
*837 FILLER_12_527
*838 FILLER_12_531
*839 FILLER_12_534
*840 FILLER_12_598
*841 FILLER_12_602
*842 FILLER_12_605
*843 FILLER_12_669
*844 FILLER_12_673
*845 FILLER_12_676
*846 FILLER_12_740
*847 FILLER_12_744
*848 FILLER_12_747
*849 FILLER_12_811
*850 FILLER_12_815
*851 FILLER_12_818
*852 FILLER_12_882
*853 FILLER_12_886
*854 FILLER_12_889
*855 FILLER_12_899
*856 FILLER_12_931
*857 FILLER_12_947
*858 FILLER_12_955
*859 FILLER_12_957
*860 FILLER_12_960
*861 FILLER_13_1060
*862 FILLER_13_1064
*863 FILLER_13_1067
*864 FILLER_13_1131
*865 FILLER_13_1135
*866 FILLER_13_1138
*867 FILLER_13_1202
*868 FILLER_13_1206
*869 FILLER_13_1209
*870 FILLER_13_1273
*871 FILLER_13_1277
*872 FILLER_13_1280
*873 FILLER_13_1312
*874 FILLER_13_137
*875 FILLER_13_141
*876 FILLER_13_144
*877 FILLER_13_2
*878 FILLER_13_208
*879 FILLER_13_212
*880 FILLER_13_215
*881 FILLER_13_279
*882 FILLER_13_283
*883 FILLER_13_286
*884 FILLER_13_350
*885 FILLER_13_354
*886 FILLER_13_357
*887 FILLER_13_421
*888 FILLER_13_425
*889 FILLER_13_428
*890 FILLER_13_492
*891 FILLER_13_496
*892 FILLER_13_499
*893 FILLER_13_563
*894 FILLER_13_567
*895 FILLER_13_570
*896 FILLER_13_634
*897 FILLER_13_638
*898 FILLER_13_641
*899 FILLER_13_66
*900 FILLER_13_70
*901 FILLER_13_705
*902 FILLER_13_709
*903 FILLER_13_712
*904 FILLER_13_73
*905 FILLER_13_776
*906 FILLER_13_780
*907 FILLER_13_783
*908 FILLER_13_847
*909 FILLER_13_851
*910 FILLER_13_854
*911 FILLER_13_918
*912 FILLER_13_922
*913 FILLER_13_925
*914 FILLER_13_989
*915 FILLER_13_993
*916 FILLER_13_996
*917 FILLER_14_101
*918 FILLER_14_1024
*919 FILLER_14_1028
*920 FILLER_14_1031
*921 FILLER_14_105
*922 FILLER_14_108
*923 FILLER_14_1095
*924 FILLER_14_1099
*925 FILLER_14_1102
*926 FILLER_14_1166
*927 FILLER_14_1170
*928 FILLER_14_1173
*929 FILLER_14_1237
*930 FILLER_14_1241
*931 FILLER_14_1244
*932 FILLER_14_1276
*933 FILLER_14_1292
*934 FILLER_14_1296
*935 FILLER_14_1312
*936 FILLER_14_172
*937 FILLER_14_176
*938 FILLER_14_179
*939 FILLER_14_2
*940 FILLER_14_243
*941 FILLER_14_247
*942 FILLER_14_250
*943 FILLER_14_314
*944 FILLER_14_318
*945 FILLER_14_321
*946 FILLER_14_34
*947 FILLER_14_37
*948 FILLER_14_385
*949 FILLER_14_389
*950 FILLER_14_392
*951 FILLER_14_456
*952 FILLER_14_460
*953 FILLER_14_463
*954 FILLER_14_527
*955 FILLER_14_531
*956 FILLER_14_534
*957 FILLER_14_598
*958 FILLER_14_602
*959 FILLER_14_605
*960 FILLER_14_669
*961 FILLER_14_673
*962 FILLER_14_676
*963 FILLER_14_740
*964 FILLER_14_744
*965 FILLER_14_747
*966 FILLER_14_811
*967 FILLER_14_815
*968 FILLER_14_818
*969 FILLER_14_882
*970 FILLER_14_886
*971 FILLER_14_889
*972 FILLER_14_953
*973 FILLER_14_957
*974 FILLER_14_960
*975 FILLER_15_1060
*976 FILLER_15_1064
*977 FILLER_15_1067
*978 FILLER_15_1131
*979 FILLER_15_1135
*980 FILLER_15_1138
*981 FILLER_15_1202
*982 FILLER_15_1206
*983 FILLER_15_1209
*984 FILLER_15_1273
*985 FILLER_15_1277
*986 FILLER_15_1280
*987 FILLER_15_1288
*988 FILLER_15_1292
*989 FILLER_15_1296
*990 FILLER_15_1312
*991 FILLER_15_137
*992 FILLER_15_141
*993 FILLER_15_144
*994 FILLER_15_2
*995 FILLER_15_208
*996 FILLER_15_212
*997 FILLER_15_215
*998 FILLER_15_279
*999 FILLER_15_283
*1000 FILLER_15_286
*1001 FILLER_15_350
*1002 FILLER_15_354
*1003 FILLER_15_357
*1004 FILLER_15_421
*1005 FILLER_15_425
*1006 FILLER_15_428
*1007 FILLER_15_492
*1008 FILLER_15_496
*1009 FILLER_15_499
*1010 FILLER_15_563
*1011 FILLER_15_567
*1012 FILLER_15_570
*1013 FILLER_15_634
*1014 FILLER_15_638
*1015 FILLER_15_641
*1016 FILLER_15_66
*1017 FILLER_15_70
*1018 FILLER_15_705
*1019 FILLER_15_709
*1020 FILLER_15_712
*1021 FILLER_15_73
*1022 FILLER_15_776
*1023 FILLER_15_780
*1024 FILLER_15_783
*1025 FILLER_15_847
*1026 FILLER_15_851
*1027 FILLER_15_854
*1028 FILLER_15_918
*1029 FILLER_15_922
*1030 FILLER_15_925
*1031 FILLER_15_989
*1032 FILLER_15_993
*1033 FILLER_15_996
*1034 FILLER_16_101
*1035 FILLER_16_1024
*1036 FILLER_16_1028
*1037 FILLER_16_1031
*1038 FILLER_16_105
*1039 FILLER_16_108
*1040 FILLER_16_1095
*1041 FILLER_16_1099
*1042 FILLER_16_1102
*1043 FILLER_16_1166
*1044 FILLER_16_1170
*1045 FILLER_16_1173
*1046 FILLER_16_1237
*1047 FILLER_16_1241
*1048 FILLER_16_1244
*1049 FILLER_16_1276
*1050 FILLER_16_1292
*1051 FILLER_16_1296
*1052 FILLER_16_1312
*1053 FILLER_16_172
*1054 FILLER_16_176
*1055 FILLER_16_179
*1056 FILLER_16_2
*1057 FILLER_16_243
*1058 FILLER_16_247
*1059 FILLER_16_250
*1060 FILLER_16_314
*1061 FILLER_16_318
*1062 FILLER_16_321
*1063 FILLER_16_34
*1064 FILLER_16_37
*1065 FILLER_16_385
*1066 FILLER_16_389
*1067 FILLER_16_392
*1068 FILLER_16_456
*1069 FILLER_16_460
*1070 FILLER_16_463
*1071 FILLER_16_527
*1072 FILLER_16_531
*1073 FILLER_16_534
*1074 FILLER_16_598
*1075 FILLER_16_602
*1076 FILLER_16_605
*1077 FILLER_16_669
*1078 FILLER_16_673
*1079 FILLER_16_676
*1080 FILLER_16_740
*1081 FILLER_16_744
*1082 FILLER_16_747
*1083 FILLER_16_811
*1084 FILLER_16_815
*1085 FILLER_16_818
*1086 FILLER_16_882
*1087 FILLER_16_886
*1088 FILLER_16_889
*1089 FILLER_16_953
*1090 FILLER_16_957
*1091 FILLER_16_960
*1092 FILLER_17_1060
*1093 FILLER_17_1064
*1094 FILLER_17_1067
*1095 FILLER_17_1131
*1096 FILLER_17_1135
*1097 FILLER_17_1138
*1098 FILLER_17_1202
*1099 FILLER_17_1206
*1100 FILLER_17_1209
*1101 FILLER_17_1273
*1102 FILLER_17_1277
*1103 FILLER_17_1280
*1104 FILLER_17_1288
*1105 FILLER_17_1292
*1106 FILLER_17_1296
*1107 FILLER_17_1312
*1108 FILLER_17_137
*1109 FILLER_17_141
*1110 FILLER_17_144
*1111 FILLER_17_2
*1112 FILLER_17_208
*1113 FILLER_17_212
*1114 FILLER_17_215
*1115 FILLER_17_279
*1116 FILLER_17_283
*1117 FILLER_17_286
*1118 FILLER_17_350
*1119 FILLER_17_354
*1120 FILLER_17_357
*1121 FILLER_17_421
*1122 FILLER_17_425
*1123 FILLER_17_428
*1124 FILLER_17_492
*1125 FILLER_17_496
*1126 FILLER_17_499
*1127 FILLER_17_563
*1128 FILLER_17_567
*1129 FILLER_17_570
*1130 FILLER_17_634
*1131 FILLER_17_638
*1132 FILLER_17_641
*1133 FILLER_17_66
*1134 FILLER_17_70
*1135 FILLER_17_705
*1136 FILLER_17_709
*1137 FILLER_17_712
*1138 FILLER_17_73
*1139 FILLER_17_776
*1140 FILLER_17_780
*1141 FILLER_17_783
*1142 FILLER_17_847
*1143 FILLER_17_851
*1144 FILLER_17_854
*1145 FILLER_17_918
*1146 FILLER_17_922
*1147 FILLER_17_925
*1148 FILLER_17_989
*1149 FILLER_17_993
*1150 FILLER_17_996
*1151 FILLER_18_101
*1152 FILLER_18_1024
*1153 FILLER_18_1028
*1154 FILLER_18_1031
*1155 FILLER_18_105
*1156 FILLER_18_108
*1157 FILLER_18_1095
*1158 FILLER_18_1099
*1159 FILLER_18_1102
*1160 FILLER_18_1166
*1161 FILLER_18_1170
*1162 FILLER_18_1173
*1163 FILLER_18_1237
*1164 FILLER_18_1241
*1165 FILLER_18_1244
*1166 FILLER_18_1276
*1167 FILLER_18_1292
*1168 FILLER_18_1296
*1169 FILLER_18_1312
*1170 FILLER_18_172
*1171 FILLER_18_176
*1172 FILLER_18_179
*1173 FILLER_18_2
*1174 FILLER_18_243
*1175 FILLER_18_247
*1176 FILLER_18_250
*1177 FILLER_18_314
*1178 FILLER_18_318
*1179 FILLER_18_321
*1180 FILLER_18_34
*1181 FILLER_18_37
*1182 FILLER_18_385
*1183 FILLER_18_389
*1184 FILLER_18_392
*1185 FILLER_18_456
*1186 FILLER_18_460
*1187 FILLER_18_463
*1188 FILLER_18_527
*1189 FILLER_18_531
*1190 FILLER_18_534
*1191 FILLER_18_598
*1192 FILLER_18_602
*1193 FILLER_18_605
*1194 FILLER_18_669
*1195 FILLER_18_673
*1196 FILLER_18_676
*1197 FILLER_18_740
*1198 FILLER_18_744
*1199 FILLER_18_747
*1200 FILLER_18_811
*1201 FILLER_18_815
*1202 FILLER_18_818
*1203 FILLER_18_882
*1204 FILLER_18_886
*1205 FILLER_18_889
*1206 FILLER_18_953
*1207 FILLER_18_957
*1208 FILLER_18_960
*1209 FILLER_19_1000
*1210 FILLER_19_1008
*1211 FILLER_19_1040
*1212 FILLER_19_1056
*1213 FILLER_19_1064
*1214 FILLER_19_1067
*1215 FILLER_19_1131
*1216 FILLER_19_1135
*1217 FILLER_19_1138
*1218 FILLER_19_1202
*1219 FILLER_19_1206
*1220 FILLER_19_1209
*1221 FILLER_19_1273
*1222 FILLER_19_1277
*1223 FILLER_19_1280
*1224 FILLER_19_1288
*1225 FILLER_19_1292
*1226 FILLER_19_1296
*1227 FILLER_19_1312
*1228 FILLER_19_137
*1229 FILLER_19_141
*1230 FILLER_19_144
*1231 FILLER_19_2
*1232 FILLER_19_208
*1233 FILLER_19_212
*1234 FILLER_19_215
*1235 FILLER_19_279
*1236 FILLER_19_283
*1237 FILLER_19_286
*1238 FILLER_19_350
*1239 FILLER_19_354
*1240 FILLER_19_357
*1241 FILLER_19_421
*1242 FILLER_19_425
*1243 FILLER_19_428
*1244 FILLER_19_492
*1245 FILLER_19_496
*1246 FILLER_19_499
*1247 FILLER_19_563
*1248 FILLER_19_567
*1249 FILLER_19_570
*1250 FILLER_19_634
*1251 FILLER_19_638
*1252 FILLER_19_641
*1253 FILLER_19_66
*1254 FILLER_19_70
*1255 FILLER_19_705
*1256 FILLER_19_709
*1257 FILLER_19_712
*1258 FILLER_19_73
*1259 FILLER_19_776
*1260 FILLER_19_780
*1261 FILLER_19_783
*1262 FILLER_19_847
*1263 FILLER_19_851
*1264 FILLER_19_854
*1265 FILLER_19_918
*1266 FILLER_19_922
*1267 FILLER_19_925
*1268 FILLER_19_989
*1269 FILLER_19_993
*1270 FILLER_19_996
*1271 FILLER_1_1012
*1272 FILLER_1_1016
*1273 FILLER_1_102
*1274 FILLER_1_1020
*1275 FILLER_1_1036
*1276 FILLER_1_1053
*1277 FILLER_1_106
*1278 FILLER_1_1061
*1279 FILLER_1_1067
*1280 FILLER_1_1070
*1281 FILLER_1_1074
*1282 FILLER_1_1091
*1283 FILLER_1_1110
*1284 FILLER_1_1127
*1285 FILLER_1_1135
*1286 FILLER_1_1138
*1287 FILLER_1_1141
*1288 FILLER_1_1158
*1289 FILLER_1_1177
*1290 FILLER_1_1187
*1291 FILLER_1_1189
*1292 FILLER_1_1196
*1293 FILLER_1_1206
*1294 FILLER_1_1209
*1295 FILLER_1_122
*1296 FILLER_1_1225
*1297 FILLER_1_1227
*1298 FILLER_1_1243
*1299 FILLER_1_125
*1300 FILLER_1_1260
*1301 FILLER_1_1268
*1302 FILLER_1_1276
*1303 FILLER_1_1280
*1304 FILLER_1_1283
*1305 FILLER_1_1287
*1306 FILLER_1_1289
*1307 FILLER_1_1292
*1308 FILLER_1_1296
*1309 FILLER_1_1304
*1310 FILLER_1_1312
*1311 FILLER_1_141
*1312 FILLER_1_144
*1313 FILLER_1_159
*1314 FILLER_1_163
*1315 FILLER_1_179
*1316 FILLER_1_183
*1317 FILLER_1_191
*1318 FILLER_1_195
*1319 FILLER_1_2
*1320 FILLER_1_211
*1321 FILLER_1_215
*1322 FILLER_1_218
*1323 FILLER_1_250
*1324 FILLER_1_266
*1325 FILLER_1_274
*1326 FILLER_1_278
*1327 FILLER_1_281
*1328 FILLER_1_283
*1329 FILLER_1_286
*1330 FILLER_1_320
*1331 FILLER_1_34
*1332 FILLER_1_352
*1333 FILLER_1_354
*1334 FILLER_1_357
*1335 FILLER_1_373
*1336 FILLER_1_381
*1337 FILLER_1_383
*1338 FILLER_1_386
*1339 FILLER_1_418
*1340 FILLER_1_42
*1341 FILLER_1_422
*1342 FILLER_1_425
*1343 FILLER_1_428
*1344 FILLER_1_460
*1345 FILLER_1_476
*1346 FILLER_1_48
*1347 FILLER_1_484
*1348 FILLER_1_488
*1349 FILLER_1_491
*1350 FILLER_1_495
*1351 FILLER_1_499
*1352 FILLER_1_515
*1353 FILLER_1_523
*1354 FILLER_1_527
*1355 FILLER_1_530
*1356 FILLER_1_562
*1357 FILLER_1_566
*1358 FILLER_1_570
*1359 FILLER_1_586
*1360 FILLER_1_596
*1361 FILLER_1_628
*1362 FILLER_1_636
*1363 FILLER_1_638
*1364 FILLER_1_64
*1365 FILLER_1_641
*1366 FILLER_1_644
*1367 FILLER_1_650
*1368 FILLER_1_654
*1369 FILLER_1_658
*1370 FILLER_1_665
*1371 FILLER_1_669
*1372 FILLER_1_673
*1373 FILLER_1_68
*1374 FILLER_1_680
*1375 FILLER_1_688
*1376 FILLER_1_696
*1377 FILLER_1_70
*1378 FILLER_1_704
*1379 FILLER_1_708
*1380 FILLER_1_712
*1381 FILLER_1_719
*1382 FILLER_1_723
*1383 FILLER_1_73
*1384 FILLER_1_739
*1385 FILLER_1_747
*1386 FILLER_1_751
*1387 FILLER_1_76
*1388 FILLER_1_769
*1389 FILLER_1_777
*1390 FILLER_1_783
*1391 FILLER_1_790
*1392 FILLER_1_800
*1393 FILLER_1_804
*1394 FILLER_1_820
*1395 FILLER_1_824
*1396 FILLER_1_828
*1397 FILLER_1_832
*1398 FILLER_1_84
*1399 FILLER_1_840
*1400 FILLER_1_842
*1401 FILLER_1_845
*1402 FILLER_1_849
*1403 FILLER_1_851
*1404 FILLER_1_854
*1405 FILLER_1_862
*1406 FILLER_1_879
*1407 FILLER_1_896
*1408 FILLER_1_90
*1409 FILLER_1_913
*1410 FILLER_1_921
*1411 FILLER_1_925
*1412 FILLER_1_941
*1413 FILLER_1_945
*1414 FILLER_1_949
*1415 FILLER_1_953
*1416 FILLER_1_955
*1417 FILLER_1_958
*1418 FILLER_1_962
*1419 FILLER_1_970
*1420 FILLER_1_98
*1421 FILLER_1_987
*1422 FILLER_1_991
*1423 FILLER_1_993
*1424 FILLER_1_996
*1425 FILLER_20_101
*1426 FILLER_20_1024
*1427 FILLER_20_1028
*1428 FILLER_20_1031
*1429 FILLER_20_105
*1430 FILLER_20_108
*1431 FILLER_20_1095
*1432 FILLER_20_1099
*1433 FILLER_20_1102
*1434 FILLER_20_1166
*1435 FILLER_20_1170
*1436 FILLER_20_1173
*1437 FILLER_20_1237
*1438 FILLER_20_1241
*1439 FILLER_20_1244
*1440 FILLER_20_1276
*1441 FILLER_20_1292
*1442 FILLER_20_1296
*1443 FILLER_20_1312
*1444 FILLER_20_172
*1445 FILLER_20_176
*1446 FILLER_20_179
*1447 FILLER_20_2
*1448 FILLER_20_243
*1449 FILLER_20_247
*1450 FILLER_20_250
*1451 FILLER_20_314
*1452 FILLER_20_318
*1453 FILLER_20_321
*1454 FILLER_20_34
*1455 FILLER_20_37
*1456 FILLER_20_385
*1457 FILLER_20_389
*1458 FILLER_20_392
*1459 FILLER_20_456
*1460 FILLER_20_460
*1461 FILLER_20_463
*1462 FILLER_20_527
*1463 FILLER_20_531
*1464 FILLER_20_534
*1465 FILLER_20_598
*1466 FILLER_20_602
*1467 FILLER_20_605
*1468 FILLER_20_669
*1469 FILLER_20_673
*1470 FILLER_20_676
*1471 FILLER_20_740
*1472 FILLER_20_744
*1473 FILLER_20_747
*1474 FILLER_20_811
*1475 FILLER_20_815
*1476 FILLER_20_818
*1477 FILLER_20_882
*1478 FILLER_20_886
*1479 FILLER_20_889
*1480 FILLER_20_953
*1481 FILLER_20_957
*1482 FILLER_20_960
*1483 FILLER_21_1060
*1484 FILLER_21_1064
*1485 FILLER_21_1067
*1486 FILLER_21_1131
*1487 FILLER_21_1135
*1488 FILLER_21_1138
*1489 FILLER_21_1202
*1490 FILLER_21_1206
*1491 FILLER_21_1209
*1492 FILLER_21_1273
*1493 FILLER_21_1277
*1494 FILLER_21_1280
*1495 FILLER_21_1312
*1496 FILLER_21_137
*1497 FILLER_21_141
*1498 FILLER_21_144
*1499 FILLER_21_2
*1500 FILLER_21_208
*1501 FILLER_21_212
*1502 FILLER_21_215
*1503 FILLER_21_279
*1504 FILLER_21_283
*1505 FILLER_21_286
*1506 FILLER_21_350
*1507 FILLER_21_354
*1508 FILLER_21_357
*1509 FILLER_21_421
*1510 FILLER_21_425
*1511 FILLER_21_428
*1512 FILLER_21_492
*1513 FILLER_21_496
*1514 FILLER_21_499
*1515 FILLER_21_563
*1516 FILLER_21_567
*1517 FILLER_21_570
*1518 FILLER_21_634
*1519 FILLER_21_638
*1520 FILLER_21_641
*1521 FILLER_21_66
*1522 FILLER_21_70
*1523 FILLER_21_705
*1524 FILLER_21_709
*1525 FILLER_21_712
*1526 FILLER_21_73
*1527 FILLER_21_776
*1528 FILLER_21_780
*1529 FILLER_21_783
*1530 FILLER_21_847
*1531 FILLER_21_851
*1532 FILLER_21_854
*1533 FILLER_21_918
*1534 FILLER_21_922
*1535 FILLER_21_925
*1536 FILLER_21_989
*1537 FILLER_21_993
*1538 FILLER_21_996
*1539 FILLER_22_101
*1540 FILLER_22_1024
*1541 FILLER_22_1028
*1542 FILLER_22_1031
*1543 FILLER_22_105
*1544 FILLER_22_108
*1545 FILLER_22_1095
*1546 FILLER_22_1099
*1547 FILLER_22_1102
*1548 FILLER_22_1166
*1549 FILLER_22_1170
*1550 FILLER_22_1173
*1551 FILLER_22_1237
*1552 FILLER_22_1241
*1553 FILLER_22_1244
*1554 FILLER_22_1276
*1555 FILLER_22_1292
*1556 FILLER_22_1296
*1557 FILLER_22_1312
*1558 FILLER_22_172
*1559 FILLER_22_176
*1560 FILLER_22_179
*1561 FILLER_22_2
*1562 FILLER_22_243
*1563 FILLER_22_247
*1564 FILLER_22_250
*1565 FILLER_22_314
*1566 FILLER_22_318
*1567 FILLER_22_321
*1568 FILLER_22_34
*1569 FILLER_22_37
*1570 FILLER_22_385
*1571 FILLER_22_389
*1572 FILLER_22_392
*1573 FILLER_22_456
*1574 FILLER_22_460
*1575 FILLER_22_463
*1576 FILLER_22_527
*1577 FILLER_22_531
*1578 FILLER_22_534
*1579 FILLER_22_598
*1580 FILLER_22_602
*1581 FILLER_22_605
*1582 FILLER_22_669
*1583 FILLER_22_673
*1584 FILLER_22_676
*1585 FILLER_22_740
*1586 FILLER_22_744
*1587 FILLER_22_747
*1588 FILLER_22_811
*1589 FILLER_22_815
*1590 FILLER_22_818
*1591 FILLER_22_882
*1592 FILLER_22_886
*1593 FILLER_22_889
*1594 FILLER_22_953
*1595 FILLER_22_957