*SPEF "ieee 1481-1999"
*DESIGN "merge_memory"
*DATE "11:11:11 Fri 11 11, 1111"
*VENDOR "OpenRCX"
*PROGRAM "Parallel Extraction"
*VERSION "1.0"
*DESIGN_FLOW "NAME_SCOPE LOCAL" "PIN_CAP NONE"
*DIVIDER /
*DELIMITER :
*BUS_DELIMITER []
*T_UNIT 1 NS
*C_UNIT 1 PF
*R_UNIT 1 OHM
*L_UNIT 1 HENRY

*NAME_MAP
*1 addr[0]
*2 addr[1]
*3 addr[2]
*4 addr[3]
*5 addr[4]
*6 addr[5]
*7 addr[6]
*8 addr[7]
*9 addr[8]
*10 addr[9]
*11 addr_mem0[0]
*12 addr_mem0[1]
*13 addr_mem0[2]
*14 addr_mem0[3]
*15 addr_mem0[4]
*16 addr_mem0[5]
*17 addr_mem0[6]
*18 addr_mem0[7]
*19 addr_mem0[8]
*20 addr_mem1[0]
*21 addr_mem1[1]
*22 addr_mem1[2]
*23 addr_mem1[3]
*24 addr_mem1[4]
*25 addr_mem1[5]
*26 addr_mem1[6]
*27 addr_mem1[7]
*28 addr_mem1[8]
*29 csb
*30 csb_mem0
*31 csb_mem1
*32 dout[0]
*33 dout[10]
*34 dout[11]
*35 dout[12]
*36 dout[13]
*37 dout[14]
*38 dout[15]
*39 dout[16]
*40 dout[17]
*41 dout[18]
*42 dout[19]
*43 dout[1]
*44 dout[20]
*45 dout[21]
*46 dout[22]
*47 dout[23]
*48 dout[24]
*49 dout[25]
*50 dout[26]
*51 dout[27]
*52 dout[28]
*53 dout[29]
*54 dout[2]
*55 dout[30]
*56 dout[31]
*57 dout[3]
*58 dout[4]
*59 dout[5]
*60 dout[6]
*61 dout[7]
*62 dout[8]
*63 dout[9]
*64 dout_mem0[0]
*65 dout_mem0[10]
*66 dout_mem0[11]
*67 dout_mem0[12]
*68 dout_mem0[13]
*69 dout_mem0[14]
*70 dout_mem0[15]
*71 dout_mem0[16]
*72 dout_mem0[17]
*73 dout_mem0[18]
*74 dout_mem0[19]
*75 dout_mem0[1]
*76 dout_mem0[20]
*77 dout_mem0[21]
*78 dout_mem0[22]
*79 dout_mem0[23]
*80 dout_mem0[24]
*81 dout_mem0[25]
*82 dout_mem0[26]
*83 dout_mem0[27]
*84 dout_mem0[28]
*85 dout_mem0[29]
*86 dout_mem0[2]
*87 dout_mem0[30]
*88 dout_mem0[31]
*89 dout_mem0[3]
*90 dout_mem0[4]
*91 dout_mem0[5]
*92 dout_mem0[6]
*93 dout_mem0[7]
*94 dout_mem0[8]
*95 dout_mem0[9]
*96 dout_mem1[0]
*97 dout_mem1[10]
*98 dout_mem1[11]
*99 dout_mem1[12]
*100 dout_mem1[13]
*101 dout_mem1[14]
*102 dout_mem1[15]
*103 dout_mem1[16]
*104 dout_mem1[17]
*105 dout_mem1[18]
*106 dout_mem1[19]
*107 dout_mem1[1]
*108 dout_mem1[20]
*109 dout_mem1[21]
*110 dout_mem1[22]
*111 dout_mem1[23]
*112 dout_mem1[24]
*113 dout_mem1[25]
*114 dout_mem1[26]
*115 dout_mem1[27]
*116 dout_mem1[28]
*117 dout_mem1[29]
*118 dout_mem1[2]
*119 dout_mem1[30]
*120 dout_mem1[31]
*121 dout_mem1[3]
*122 dout_mem1[4]
*123 dout_mem1[5]
*124 dout_mem1[6]
*125 dout_mem1[7]
*126 dout_mem1[8]
*127 dout_mem1[9]
*130 _000_
*131 _001_
*132 _002_
*133 _003_
*134 _004_
*135 _005_
*136 _006_
*137 _007_
*138 _008_
*139 _009_
*140 _010_
*141 _011_
*142 _012_
*143 _013_
*144 _014_
*145 _015_
*146 _016_
*147 _017_
*148 _018_
*149 _019_
*150 _020_
*151 _021_
*152 _022_
*153 _023_
*154 _024_
*155 _025_
*156 _026_
*157 _027_
*158 _028_
*159 _029_
*160 _030_
*161 _031_
*162 _032_
*163 _033_
*164 _034_
*165 _035_
*166 _036_
*167 _037_
*168 _038_
*169 _039_
*170 _040_
*171 _041_
*172 net1
*173 net10
*174 net100
*175 net101
*176 net102
*177 net103
*178 net104
*179 net105
*180 net106
*181 net107
*182 net108
*183 net109
*184 net11
*185 net110
*186 net111
*187 net112
*188 net113
*189 net114
*190 net115
*191 net116
*192 net117
*193 net118
*194 net119
*195 net12
*196 net120
*197 net121
*198 net122
*199 net123
*200 net124
*201 net125
*202 net126
*203 net127
*204 net13
*205 net14
*206 net15
*207 net16
*208 net17
*209 net18
*210 net19
*211 net2
*212 net20
*213 net21
*214 net22
*215 net23
*216 net24
*217 net25
*218 net26
*219 net27
*220 net28
*221 net29
*222 net3
*223 net30
*224 net31
*225 net32
*226 net33
*227 net34
*228 net35
*229 net36
*230 net37
*231 net38
*232 net39
*233 net4
*234 net40
*235 net41
*236 net42
*237 net43
*238 net44
*239 net45
*240 net46
*241 net47
*242 net48
*243 net49
*244 net5
*245 net50
*246 net51
*247 net52
*248 net53
*249 net54
*250 net55
*251 net56
*252 net57
*253 net58
*254 net59
*255 net6
*256 net60
*257 net61
*258 net62
*259 net63
*260 net64
*261 net65
*262 net66
*263 net67
*264 net68
*265 net69
*266 net7
*267 net70
*268 net71
*269 net72
*270 net73
*271 net74
*272 net75
*273 net76
*274 net77
*275 net78
*276 net79
*277 net8
*278 net80
*279 net81
*280 net82
*281 net83
*282 net84
*283 net85
*284 net86
*285 net87
*286 net88
*287 net89
*288 net9
*289 net90
*290 net91
*291 net92
*292 net93
*293 net94
*294 net95
*295 net96
*296 net97
*297 net98
*298 net99
*299 ANTENNA__042__I
*300 ANTENNA__044__I0
*301 ANTENNA__044__S
*302 ANTENNA__046__I0
*303 ANTENNA__046__S
*304 ANTENNA__048__I0
*305 ANTENNA__048__S
*306 ANTENNA__050__I0
*307 ANTENNA__050__S
*308 ANTENNA__053__I0
*309 ANTENNA__055__I0
*310 ANTENNA__057__I0
*311 ANTENNA__059__I0
*312 ANTENNA__062__I0
*313 ANTENNA__064__I0
*314 ANTENNA__066__I0
*315 ANTENNA__068__I0
*316 ANTENNA__071__I0
*317 ANTENNA__071__S
*318 ANTENNA__073__I0
*319 ANTENNA__073__S
*320 ANTENNA__075__I0
*321 ANTENNA__075__S
*322 ANTENNA__077__I0
*323 ANTENNA__077__I1
*324 ANTENNA__077__S
*325 ANTENNA__079__I
*326 ANTENNA__080__I
*327 ANTENNA__081__I0
*328 ANTENNA__081__S
*329 ANTENNA__083__I0
*330 ANTENNA__083__S
*331 ANTENNA__084__I
*332 ANTENNA__085__I0
*333 ANTENNA__085__S
*334 ANTENNA__087__I0
*335 ANTENNA__087__S
*336 ANTENNA__089__I
*337 ANTENNA__090__I0
*338 ANTENNA__092__I0
*339 ANTENNA__094__I0
*340 ANTENNA__096__I0
*341 ANTENNA__098__I
*342 ANTENNA__099__I0
*343 ANTENNA__101__I0
*344 ANTENNA__102__I
*345 ANTENNA__103__I0
*346 ANTENNA__105__I0
*347 ANTENNA__107__I
*348 ANTENNA__108__I0
*349 ANTENNA__110__I0
*350 ANTENNA__112__I0
*351 ANTENNA__114__I0
*352 ANTENNA__116__I
*353 ANTENNA__117__I
*354 ANTENNA__118__I
*355 ANTENNA__119__I
*356 ANTENNA__120__I
*357 ANTENNA__121__I
*358 ANTENNA__122__I
*359 ANTENNA__123__I
*360 ANTENNA__124__I
*361 ANTENNA__125__I
*362 ANTENNA__126__I
*363 ANTENNA__127__I
*364 ANTENNA__128__I
*365 ANTENNA__129__I
*366 ANTENNA__130__I
*367 ANTENNA__131__I
*368 ANTENNA__132__I
*369 ANTENNA__133__I
*370 ANTENNA__134__I
*371 ANTENNA__135__I
*372 ANTENNA_input10_I
*373 ANTENNA_input11_I
*374 ANTENNA_input12_I
*375 ANTENNA_input13_I
*376 ANTENNA_input14_I
*377 ANTENNA_input15_I
*378 ANTENNA_input16_I
*379 ANTENNA_input17_I
*380 ANTENNA_input18_I
*381 ANTENNA_input19_I
*382 ANTENNA_input1_I
*383 ANTENNA_input20_I
*384 ANTENNA_input21_I
*385 ANTENNA_input22_I
*386 ANTENNA_input23_I
*387 ANTENNA_input24_I
*388 ANTENNA_input25_I
*389 ANTENNA_input26_I
*390 ANTENNA_input27_I
*391 ANTENNA_input28_I
*392 ANTENNA_input29_I
*393 ANTENNA_input2_I
*394 ANTENNA_input30_I
*395 ANTENNA_input31_I
*396 ANTENNA_input32_I
*397 ANTENNA_input33_I
*398 ANTENNA_input34_I
*399 ANTENNA_input35_I
*400 ANTENNA_input36_I
*401 ANTENNA_input37_I
*402 ANTENNA_input38_I
*403 ANTENNA_input39_I
*404 ANTENNA_input3_I
*405 ANTENNA_input40_I
*406 ANTENNA_input41_I
*407 ANTENNA_input42_I
*408 ANTENNA_input43_I
*409 ANTENNA_input44_I
*410 ANTENNA_input45_I
*411 ANTENNA_input46_I
*412 ANTENNA_input47_I
*413 ANTENNA_input48_I
*414 ANTENNA_input49_I
*415 ANTENNA_input4_I
*416 ANTENNA_input50_I
*417 ANTENNA_input51_I
*418 ANTENNA_input52_I
*419 ANTENNA_input53_I
*420 ANTENNA_input54_I
*421 ANTENNA_input55_I
*422 ANTENNA_input56_I
*423 ANTENNA_input57_I
*424 ANTENNA_input58_I
*425 ANTENNA_input59_I
*426 ANTENNA_input5_I
*427 ANTENNA_input60_I
*428 ANTENNA_input61_I
*429 ANTENNA_input62_I
*430 ANTENNA_input63_I
*431 ANTENNA_input64_I
*432 ANTENNA_input65_I
*433 ANTENNA_input66_I
*434 ANTENNA_input67_I
*435 ANTENNA_input68_I
*436 ANTENNA_input69_I
*437 ANTENNA_input6_I
*438 ANTENNA_input70_I
*439 ANTENNA_input71_I
*440 ANTENNA_input72_I
*441 ANTENNA_input73_I
*442 ANTENNA_input74_I
*443 ANTENNA_input75_I
*444 ANTENNA_input7_I
*445 ANTENNA_input8_I
*446 ANTENNA_input9_I
*447 ANTENNA_output100_I
*448 ANTENNA_output101_I
*449 ANTENNA_output102_I
*450 ANTENNA_output103_I
*451 ANTENNA_output104_I
*452 ANTENNA_output105_I
*453 ANTENNA_output106_I
*454 ANTENNA_output107_I
*455 ANTENNA_output108_I
*456 ANTENNA_output109_I
*457 ANTENNA_output110_I
*458 ANTENNA_output111_I
*459 ANTENNA_output112_I
*460 ANTENNA_output113_I
*461 ANTENNA_output114_I
*462 ANTENNA_output115_I
*463 ANTENNA_output116_I
*464 ANTENNA_output117_I
*465 ANTENNA_output118_I
*466 ANTENNA_output119_I
*467 ANTENNA_output120_I
*468 ANTENNA_output121_I
*469 ANTENNA_output122_I
*470 ANTENNA_output123_I
*471 ANTENNA_output124_I
*472 ANTENNA_output125_I
*473 ANTENNA_output126_I
*474 ANTENNA_output127_I
*475 ANTENNA_output76_I
*476 ANTENNA_output77_I
*477 ANTENNA_output78_I
*478 ANTENNA_output79_I
*479 ANTENNA_output80_I
*480 ANTENNA_output81_I
*481 ANTENNA_output82_I
*482 ANTENNA_output83_I
*483 ANTENNA_output84_I
*484 ANTENNA_output94_I
*485 ANTENNA_output96_I
*486 ANTENNA_output97_I
*487 ANTENNA_output98_I
*488 ANTENNA_output99_I
*489 FILLER_0_1003
*490 FILLER_0_1007
*491 FILLER_0_1011
*492 FILLER_0_1014
*493 FILLER_0_1017
*494 FILLER_0_1034
*495 FILLER_0_104
*496 FILLER_0_1044
*497 FILLER_0_1048
*498 FILLER_0_1052
*499 FILLER_0_1054
*500 FILLER_0_107
*501 FILLER_0_1071
*502 FILLER_0_1075
*503 FILLER_0_1079
*504 FILLER_0_1081
*505 FILLER_0_1084
*506 FILLER_0_1087
*507 FILLER_0_1104
*508 FILLER_0_1114
*509 FILLER_0_1118
*510 FILLER_0_1122
*511 FILLER_0_1139
*512 FILLER_0_1143
*513 FILLER_0_1145
*514 FILLER_0_1154
*515 FILLER_0_1157
*516 FILLER_0_1174
*517 FILLER_0_1184
*518 FILLER_0_1188
*519 FILLER_0_1192
*520 FILLER_0_1209
*521 FILLER_0_1213
*522 FILLER_0_1217
*523 FILLER_0_1224
*524 FILLER_0_1227
*525 FILLER_0_123
*526 FILLER_0_1244
*527 FILLER_0_1248
*528 FILLER_0_1252
*529 FILLER_0_1256
*530 FILLER_0_1262
*531 FILLER_0_1264
*532 FILLER_0_1281
*533 FILLER_0_1285
*534 FILLER_0_1293
*535 FILLER_0_1297
*536 FILLER_0_139
*537 FILLER_0_142
*538 FILLER_0_157
*539 FILLER_0_159
*540 FILLER_0_174
*541 FILLER_0_177
*542 FILLER_0_180
*543 FILLER_0_188
*544 FILLER_0_192
*545 FILLER_0_2
*546 FILLER_0_209
*547 FILLER_0_212
*548 FILLER_0_215
*549 FILLER_0_223
*550 FILLER_0_227
*551 FILLER_0_244
*552 FILLER_0_247
*553 FILLER_0_250
*554 FILLER_0_260
*555 FILLER_0_262
*556 FILLER_0_279
*557 FILLER_0_282
*558 FILLER_0_285
*559 FILLER_0_293
*560 FILLER_0_297
*561 FILLER_0_314
*562 FILLER_0_317
*563 FILLER_0_320
*564 FILLER_0_328
*565 FILLER_0_332
*566 FILLER_0_34
*567 FILLER_0_349
*568 FILLER_0_352
*569 FILLER_0_355
*570 FILLER_0_359
*571 FILLER_0_363
*572 FILLER_0_37
*573 FILLER_0_381
*574 FILLER_0_387
*575 FILLER_0_391
*576 FILLER_0_395
*577 FILLER_0_419
*578 FILLER_0_422
*579 FILLER_0_425
*580 FILLER_0_433
*581 FILLER_0_437
*582 FILLER_0_454
*583 FILLER_0_457
*584 FILLER_0_460
*585 FILLER_0_464
*586 FILLER_0_468
*587 FILLER_0_486
*588 FILLER_0_492
*589 FILLER_0_496
*590 FILLER_0_500
*591 FILLER_0_52
*592 FILLER_0_524
*593 FILLER_0_527
*594 FILLER_0_530
*595 FILLER_0_538
*596 FILLER_0_54
*597 FILLER_0_542
*598 FILLER_0_559
*599 FILLER_0_562
*600 FILLER_0_565
*601 FILLER_0_569
*602 FILLER_0_573
*603 FILLER_0_591
*604 FILLER_0_597
*605 FILLER_0_601
*606 FILLER_0_605
*607 FILLER_0_629
*608 FILLER_0_632
*609 FILLER_0_638
*610 FILLER_0_646
*611 FILLER_0_664
*612 FILLER_0_667
*613 FILLER_0_682
*614 FILLER_0_69
*615 FILLER_0_698
*616 FILLER_0_702
*617 FILLER_0_717
*618 FILLER_0_72
*619 FILLER_0_733
*620 FILLER_0_737
*621 FILLER_0_739
*622 FILLER_0_754
*623 FILLER_0_762
*624 FILLER_0_766
*625 FILLER_0_772
*626 FILLER_0_787
*627 FILLER_0_803
*628 FILLER_0_807
*629 FILLER_0_813
*630 FILLER_0_831
*631 FILLER_0_835
*632 FILLER_0_839
*633 FILLER_0_842
*634 FILLER_0_844
*635 FILLER_0_861
*636 FILLER_0_865
*637 FILLER_0_869
*638 FILLER_0_871
*639 FILLER_0_874
*640 FILLER_0_877
*641 FILLER_0_88
*642 FILLER_0_894
*643 FILLER_0_902
*644 FILLER_0_906
*645 FILLER_0_909
*646 FILLER_0_912
*647 FILLER_0_929
*648 FILLER_0_939
*649 FILLER_0_943
*650 FILLER_0_947
*651 FILLER_0_964
*652 FILLER_0_968
*653 FILLER_0_978
*654 FILLER_0_982
*655 FILLER_0_999
*656 FILLER_10_101
*657 FILLER_10_1024
*658 FILLER_10_1028
*659 FILLER_10_1031
*660 FILLER_10_105
*661 FILLER_10_108
*662 FILLER_10_1095
*663 FILLER_10_1099
*664 FILLER_10_1102
*665 FILLER_10_1166
*666 FILLER_10_1170
*667 FILLER_10_1173
*668 FILLER_10_1237
*669 FILLER_10_1241
*670 FILLER_10_1244
*671 FILLER_10_1276
*672 FILLER_10_1279
*673 FILLER_10_1295
*674 FILLER_10_1311
*675 FILLER_10_172
*676 FILLER_10_176
*677 FILLER_10_179
*678 FILLER_10_2
*679 FILLER_10_243
*680 FILLER_10_247
*681 FILLER_10_250
*682 FILLER_10_314
*683 FILLER_10_318
*684 FILLER_10_321
*685 FILLER_10_34
*686 FILLER_10_37
*687 FILLER_10_385
*688 FILLER_10_389
*689 FILLER_10_392
*690 FILLER_10_456
*691 FILLER_10_460
*692 FILLER_10_463
*693 FILLER_10_527
*694 FILLER_10_531
*695 FILLER_10_534
*696 FILLER_10_598
*697 FILLER_10_602
*698 FILLER_10_605
*699 FILLER_10_669
*700 FILLER_10_673
*701 FILLER_10_676
*702 FILLER_10_740
*703 FILLER_10_744
*704 FILLER_10_747
*705 FILLER_10_811
*706 FILLER_10_815
*707 FILLER_10_818
*708 FILLER_10_882
*709 FILLER_10_886
*710 FILLER_10_889
*711 FILLER_10_896
*712 FILLER_10_928
*713 FILLER_10_944
*714 FILLER_10_952
*715 FILLER_10_956
*716 FILLER_10_960
*717 FILLER_11_1060
*718 FILLER_11_1064
*719 FILLER_11_1067
*720 FILLER_11_1131
*721 FILLER_11_1135
*722 FILLER_11_1138
*723 FILLER_11_1202
*724 FILLER_11_1206
*725 FILLER_11_1209
*726 FILLER_11_1273
*727 FILLER_11_1277
*728 FILLER_11_1280
*729 FILLER_11_1295
*730 FILLER_11_1311
*731 FILLER_11_137
*732 FILLER_11_141
*733 FILLER_11_144
*734 FILLER_11_2
*735 FILLER_11_208
*736 FILLER_11_212
*737 FILLER_11_215
*738 FILLER_11_279
*739 FILLER_11_283
*740 FILLER_11_286
*741 FILLER_11_350
*742 FILLER_11_354
*743 FILLER_11_357
*744 FILLER_11_421
*745 FILLER_11_425
*746 FILLER_11_428
*747 FILLER_11_492
*748 FILLER_11_496
*749 FILLER_11_499
*750 FILLER_11_563
*751 FILLER_11_567
*752 FILLER_11_570
*753 FILLER_11_634
*754 FILLER_11_638
*755 FILLER_11_641
*756 FILLER_11_66
*757 FILLER_11_70
*758 FILLER_11_705
*759 FILLER_11_709
*760 FILLER_11_712
*761 FILLER_11_73
*762 FILLER_11_776
*763 FILLER_11_780
*764 FILLER_11_783
*765 FILLER_11_847
*766 FILLER_11_851
*767 FILLER_11_854
*768 FILLER_11_870
*769 FILLER_11_878
*770 FILLER_11_880
*771 FILLER_11_887
*772 FILLER_11_919
*773 FILLER_11_925
*774 FILLER_11_989
*775 FILLER_11_993
*776 FILLER_11_996
*777 FILLER_12_101
*778 FILLER_12_1024
*779 FILLER_12_1028
*780 FILLER_12_1031
*781 FILLER_12_105
*782 FILLER_12_108
*783 FILLER_12_1095
*784 FILLER_12_1099
*785 FILLER_12_1102
*786 FILLER_12_1166
*787 FILLER_12_1170
*788 FILLER_12_1173
*789 FILLER_12_1237
*790 FILLER_12_1241
*791 FILLER_12_1244
*792 FILLER_12_1276
*793 FILLER_12_1279
*794 FILLER_12_1295
*795 FILLER_12_1311
*796 FILLER_12_172
*797 FILLER_12_176
*798 FILLER_12_179
*799 FILLER_12_2
*800 FILLER_12_243
*801 FILLER_12_247
*802 FILLER_12_250
*803 FILLER_12_314
*804 FILLER_12_318
*805 FILLER_12_321
*806 FILLER_12_34
*807 FILLER_12_37
*808 FILLER_12_385
*809 FILLER_12_389
*810 FILLER_12_392
*811 FILLER_12_456
*812 FILLER_12_460
*813 FILLER_12_463
*814 FILLER_12_527
*815 FILLER_12_531
*816 FILLER_12_534
*817 FILLER_12_598
*818 FILLER_12_602
*819 FILLER_12_605
*820 FILLER_12_669
*821 FILLER_12_673
*822 FILLER_12_676
*823 FILLER_12_740
*824 FILLER_12_744
*825 FILLER_12_747
*826 FILLER_12_811
*827 FILLER_12_815
*828 FILLER_12_818
*829 FILLER_12_882
*830 FILLER_12_886
*831 FILLER_12_889
*832 FILLER_12_896
*833 FILLER_12_928
*834 FILLER_12_944
*835 FILLER_12_952
*836 FILLER_12_956
*837 FILLER_12_960
*838 FILLER_13_1060
*839 FILLER_13_1064
*840 FILLER_13_1067
*841 FILLER_13_1131
*842 FILLER_13_1135
*843 FILLER_13_1138
*844 FILLER_13_1202
*845 FILLER_13_1206
*846 FILLER_13_1209
*847 FILLER_13_1273
*848 FILLER_13_1277
*849 FILLER_13_1280
*850 FILLER_13_1312
*851 FILLER_13_137
*852 FILLER_13_141
*853 FILLER_13_144
*854 FILLER_13_2
*855 FILLER_13_208
*856 FILLER_13_212
*857 FILLER_13_215
*858 FILLER_13_279
*859 FILLER_13_283
*860 FILLER_13_286
*861 FILLER_13_350
*862 FILLER_13_354
*863 FILLER_13_357
*864 FILLER_13_421
*865 FILLER_13_425
*866 FILLER_13_428
*867 FILLER_13_492
*868 FILLER_13_496
*869 FILLER_13_499
*870 FILLER_13_563
*871 FILLER_13_567
*872 FILLER_13_570
*873 FILLER_13_634
*874 FILLER_13_638
*875 FILLER_13_641
*876 FILLER_13_66
*877 FILLER_13_70
*878 FILLER_13_705
*879 FILLER_13_709
*880 FILLER_13_712
*881 FILLER_13_73
*882 FILLER_13_776
*883 FILLER_13_780
*884 FILLER_13_783
*885 FILLER_13_847
*886 FILLER_13_851
*887 FILLER_13_854
*888 FILLER_13_918
*889 FILLER_13_922
*890 FILLER_13_925
*891 FILLER_13_989
*892 FILLER_13_993
*893 FILLER_13_996
*894 FILLER_14_101
*895 FILLER_14_1024
*896 FILLER_14_1028
*897 FILLER_14_1031
*898 FILLER_14_105
*899 FILLER_14_108
*900 FILLER_14_1095
*901 FILLER_14_1099
*902 FILLER_14_1102
*903 FILLER_14_1166
*904 FILLER_14_1170
*905 FILLER_14_1173
*906 FILLER_14_1237
*907 FILLER_14_1241
*908 FILLER_14_1244
*909 FILLER_14_1276
*910 FILLER_14_1279
*911 FILLER_14_1295
*912 FILLER_14_1311
*913 FILLER_14_172
*914 FILLER_14_176
*915 FILLER_14_179
*916 FILLER_14_2
*917 FILLER_14_243
*918 FILLER_14_247
*919 FILLER_14_250
*920 FILLER_14_314
*921 FILLER_14_318
*922 FILLER_14_321
*923 FILLER_14_34
*924 FILLER_14_37
*925 FILLER_14_385
*926 FILLER_14_389
*927 FILLER_14_392
*928 FILLER_14_456
*929 FILLER_14_460
*930 FILLER_14_463
*931 FILLER_14_527
*932 FILLER_14_531
*933 FILLER_14_534
*934 FILLER_14_598
*935 FILLER_14_602
*936 FILLER_14_605
*937 FILLER_14_669
*938 FILLER_14_673
*939 FILLER_14_676
*940 FILLER_14_740
*941 FILLER_14_744
*942 FILLER_14_747
*943 FILLER_14_811
*944 FILLER_14_815
*945 FILLER_14_818
*946 FILLER_14_882
*947 FILLER_14_886
*948 FILLER_14_889
*949 FILLER_14_953
*950 FILLER_14_957
*951 FILLER_14_960
*952 FILLER_15_1060
*953 FILLER_15_1064
*954 FILLER_15_1067
*955 FILLER_15_1131
*956 FILLER_15_1135
*957 FILLER_15_1138
*958 FILLER_15_1202
*959 FILLER_15_1206
*960 FILLER_15_1209
*961 FILLER_15_1273
*962 FILLER_15_1277
*963 FILLER_15_1280
*964 FILLER_15_1295
*965 FILLER_15_1311
*966 FILLER_15_137
*967 FILLER_15_141
*968 FILLER_15_144
*969 FILLER_15_2
*970 FILLER_15_208
*971 FILLER_15_212
*972 FILLER_15_215
*973 FILLER_15_279
*974 FILLER_15_283
*975 FILLER_15_286
*976 FILLER_15_350
*977 FILLER_15_354
*978 FILLER_15_357
*979 FILLER_15_421
*980 FILLER_15_425
*981 FILLER_15_428
*982 FILLER_15_492
*983 FILLER_15_496
*984 FILLER_15_499
*985 FILLER_15_563
*986 FILLER_15_567
*987 FILLER_15_570
*988 FILLER_15_634
*989 FILLER_15_638
*990 FILLER_15_641
*991 FILLER_15_66
*992 FILLER_15_70
*993 FILLER_15_705
*994 FILLER_15_709
*995 FILLER_15_712
*996 FILLER_15_73
*997 FILLER_15_776
*998 FILLER_15_780
*999 FILLER_15_783
*1000 FILLER_15_847
*1001 FILLER_15_851
*1002 FILLER_15_854
*1003 FILLER_15_918
*1004 FILLER_15_922
*1005 FILLER_15_925
*1006 FILLER_15_989
*1007 FILLER_15_993
*1008 FILLER_15_996
*1009 FILLER_16_101
*1010 FILLER_16_1024
*1011 FILLER_16_1028
*1012 FILLER_16_1031
*1013 FILLER_16_105
*1014 FILLER_16_108
*1015 FILLER_16_1095
*1016 FILLER_16_1099
*1017 FILLER_16_1102
*1018 FILLER_16_1166
*1019 FILLER_16_1170
*1020 FILLER_16_1173
*1021 FILLER_16_1237
*1022 FILLER_16_1241
*1023 FILLER_16_1244
*1024 FILLER_16_1276
*1025 FILLER_16_1279
*1026 FILLER_16_1295
*1027 FILLER_16_1311
*1028 FILLER_16_172
*1029 FILLER_16_176
*1030 FILLER_16_179
*1031 FILLER_16_2
*1032 FILLER_16_243
*1033 FILLER_16_247
*1034 FILLER_16_250
*1035 FILLER_16_314
*1036 FILLER_16_318
*1037 FILLER_16_321
*1038 FILLER_16_34
*1039 FILLER_16_37
*1040 FILLER_16_385
*1041 FILLER_16_389
*1042 FILLER_16_392
*1043 FILLER_16_456
*1044 FILLER_16_460
*1045 FILLER_16_463
*1046 FILLER_16_527
*1047 FILLER_16_531
*1048 FILLER_16_534
*1049 FILLER_16_598
*1050 FILLER_16_602
*1051 FILLER_16_605
*1052 FILLER_16_669
*1053 FILLER_16_673
*1054 FILLER_16_676
*1055 FILLER_16_740
*1056 FILLER_16_744
*1057 FILLER_16_747
*1058 FILLER_16_811
*1059 FILLER_16_815
*1060 FILLER_16_818
*1061 FILLER_16_882
*1062 FILLER_16_886
*1063 FILLER_16_889
*1064 FILLER_16_953
*1065 FILLER_16_957
*1066 FILLER_16_960
*1067 FILLER_17_1060
*1068 FILLER_17_1064
*1069 FILLER_17_1067
*1070 FILLER_17_1131
*1071 FILLER_17_1135
*1072 FILLER_17_1138
*1073 FILLER_17_1202
*1074 FILLER_17_1206
*1075 FILLER_17_1209
*1076 FILLER_17_1273
*1077 FILLER_17_1277
*1078 FILLER_17_1280
*1079 FILLER_17_1295
*1080 FILLER_17_1311
*1081 FILLER_17_137
*1082 FILLER_17_141
*1083 FILLER_17_144
*1084 FILLER_17_2
*1085 FILLER_17_208
*1086 FILLER_17_212
*1087 FILLER_17_215
*1088 FILLER_17_279
*1089 FILLER_17_283
*1090 FILLER_17_286
*1091 FILLER_17_350
*1092 FILLER_17_354
*1093 FILLER_17_357
*1094 FILLER_17_421
*1095 FILLER_17_425
*1096 FILLER_17_428
*1097 FILLER_17_492
*1098 FILLER_17_496
*1099 FILLER_17_499
*1100 FILLER_17_563
*1101 FILLER_17_567
*1102 FILLER_17_570
*1103 FILLER_17_634
*1104 FILLER_17_638
*1105 FILLER_17_641
*1106 FILLER_17_66
*1107 FILLER_17_70
*1108 FILLER_17_705
*1109 FILLER_17_709
*1110 FILLER_17_712
*1111 FILLER_17_73
*1112 FILLER_17_776
*1113 FILLER_17_780
*1114 FILLER_17_783
*1115 FILLER_17_847
*1116 FILLER_17_851
*1117 FILLER_17_854
*1118 FILLER_17_918
*1119 FILLER_17_922
*1120 FILLER_17_925
*1121 FILLER_17_989
*1122 FILLER_17_993
*1123 FILLER_17_996
*1124 FILLER_18_101
*1125 FILLER_18_1024
*1126 FILLER_18_1028
*1127 FILLER_18_1031
*1128 FILLER_18_105
*1129 FILLER_18_108
*1130 FILLER_18_1095
*1131 FILLER_18_1099
*1132 FILLER_18_1102
*1133 FILLER_18_1166
*1134 FILLER_18_1170
*1135 FILLER_18_1173
*1136 FILLER_18_1237
*1137 FILLER_18_1241
*1138 FILLER_18_1244
*1139 FILLER_18_1276
*1140 FILLER_18_1279
*1141 FILLER_18_1295
*1142 FILLER_18_1311
*1143 FILLER_18_172
*1144 FILLER_18_176
*1145 FILLER_18_179
*1146 FILLER_18_2
*1147 FILLER_18_243
*1148 FILLER_18_247
*1149 FILLER_18_250
*1150 FILLER_18_314
*1151 FILLER_18_318
*1152 FILLER_18_321
*1153 FILLER_18_34
*1154 FILLER_18_37
*1155 FILLER_18_385
*1156 FILLER_18_389
*1157 FILLER_18_392
*1158 FILLER_18_456
*1159 FILLER_18_460
*1160 FILLER_18_463
*1161 FILLER_18_527
*1162 FILLER_18_531
*1163 FILLER_18_534
*1164 FILLER_18_598
*1165 FILLER_18_602
*1166 FILLER_18_605
*1167 FILLER_18_669
*1168 FILLER_18_673
*1169 FILLER_18_676
*1170 FILLER_18_740
*1171 FILLER_18_744
*1172 FILLER_18_747
*1173 FILLER_18_811
*1174 FILLER_18_815
*1175 FILLER_18_818
*1176 FILLER_18_882
*1177 FILLER_18_886
*1178 FILLER_18_889
*1179 FILLER_18_953
*1180 FILLER_18_957
*1181 FILLER_18_960
*1182 FILLER_19_1060
*1183 FILLER_19_1064
*1184 FILLER_19_1067
*1185 FILLER_19_1131
*1186 FILLER_19_1135
*1187 FILLER_19_1138
*1188 FILLER_19_1202
*1189 FILLER_19_1206
*1190 FILLER_19_1209
*1191 FILLER_19_1273
*1192 FILLER_19_1277
*1193 FILLER_19_1280
*1194 FILLER_19_1295
*1195 FILLER_19_1311
*1196 FILLER_19_137
*1197 FILLER_19_141
*1198 FILLER_19_144
*1199 FILLER_19_2
*1200 FILLER_19_208
*1201 FILLER_19_212
*1202 FILLER_19_215
*1203 FILLER_19_279
*1204 FILLER_19_283
*1205 FILLER_19_286
*1206 FILLER_19_350
*1207 FILLER_19_354
*1208 FILLER_19_357
*1209 FILLER_19_421
*1210 FILLER_19_425
*1211 FILLER_19_428
*1212 FILLER_19_492
*1213 FILLER_19_496
*1214 FILLER_19_499
*1215 FILLER_19_563
*1216 FILLER_19_567
*1217 FILLER_19_570
*1218 FILLER_19_634
*1219 FILLER_19_638
*1220 FILLER_19_641
*1221 FILLER_19_66
*1222 FILLER_19_70
*1223 FILLER_19_705
*1224 FILLER_19_709
*1225 FILLER_19_712
*1226 FILLER_19_73
*1227 FILLER_19_776
*1228 FILLER_19_780
*1229 FILLER_19_783
*1230 FILLER_19_847
*1231 FILLER_19_851
*1232 FILLER_19_854
*1233 FILLER_19_918
*1234 FILLER_19_922
*1235 FILLER_19_925
*1236 FILLER_19_957
*1237 FILLER_19_973
*1238 FILLER_19_975
*1239 FILLER_19_978
*1240 FILLER_19_986
*1241 FILLER_19_996
*1242 FILLER_1_1013
*1243 FILLER_1_1019
*1244 FILLER_1_102
*1245 FILLER_1_1023
*1246 FILLER_1_1041
*1247 FILLER_1_1059
*1248 FILLER_1_106
*1249 FILLER_1_1063
*1250 FILLER_1_1067
*1251 FILLER_1_1069
*1252 FILLER_1_1086
*1253 FILLER_1_1092
*1254 FILLER_1_1098
*1255 FILLER_1_1116
*1256 FILLER_1_1133
*1257 FILLER_1_1135
*1258 FILLER_1_1138
*1259 FILLER_1_1155
*1260 FILLER_1_1159
*1261 FILLER_1_1176
*1262 FILLER_1_1194
*1263 FILLER_1_1198
*1264 FILLER_1_1202
*1265 FILLER_1_1206
*1266 FILLER_1_1209
*1267 FILLER_1_122
*1268 FILLER_1_1226
*1269 FILLER_1_1230
*1270 FILLER_1_1234
*1271 FILLER_1_125
*1272 FILLER_1_1251
*1273 FILLER_1_1269
*1274 FILLER_1_1277
*1275 FILLER_1_1280
*1276 FILLER_1_1297
*1277 FILLER_1_1301
*1278 FILLER_1_1309
*1279 FILLER_1_133
*1280 FILLER_1_137
*1281 FILLER_1_141
*1282 FILLER_1_144
*1283 FILLER_1_148
*1284 FILLER_1_150
*1285 FILLER_1_153
*1286 FILLER_1_169
*1287 FILLER_1_173
*1288 FILLER_1_183
*1289 FILLER_1_2
*1290 FILLER_1_201
*1291 FILLER_1_209
*1292 FILLER_1_212
*1293 FILLER_1_215
*1294 FILLER_1_232
*1295 FILLER_1_240
*1296 FILLER_1_258
*1297 FILLER_1_276
*1298 FILLER_1_280
*1299 FILLER_1_283
*1300 FILLER_1_286
*1301 FILLER_1_306
*1302 FILLER_1_314
*1303 FILLER_1_318
*1304 FILLER_1_336
*1305 FILLER_1_34
*1306 FILLER_1_354
*1307 FILLER_1_357
*1308 FILLER_1_374
*1309 FILLER_1_376
*1310 FILLER_1_393
*1311 FILLER_1_411
*1312 FILLER_1_419
*1313 FILLER_1_42
*1314 FILLER_1_425
*1315 FILLER_1_428
*1316 FILLER_1_445
*1317 FILLER_1_449
*1318 FILLER_1_453
*1319 FILLER_1_471
*1320 FILLER_1_479
*1321 FILLER_1_48
*1322 FILLER_1_496
*1323 FILLER_1_499
*1324 FILLER_1_516
*1325 FILLER_1_524
*1326 FILLER_1_528
*1327 FILLER_1_546
*1328 FILLER_1_562
*1329 FILLER_1_566
*1330 FILLER_1_570
*1331 FILLER_1_586
*1332 FILLER_1_603
*1333 FILLER_1_621
*1334 FILLER_1_631
*1335 FILLER_1_635
*1336 FILLER_1_638
*1337 FILLER_1_64
*1338 FILLER_1_641
*1339 FILLER_1_658
*1340 FILLER_1_668
*1341 FILLER_1_672
*1342 FILLER_1_674
*1343 FILLER_1_68
*1344 FILLER_1_681
*1345 FILLER_1_689
*1346 FILLER_1_697
*1347 FILLER_1_70
*1348 FILLER_1_705
*1349 FILLER_1_709
*1350 FILLER_1_712
*1351 FILLER_1_719
*1352 FILLER_1_723
*1353 FILLER_1_73
*1354 FILLER_1_739
*1355 FILLER_1_747
*1356 FILLER_1_751
*1357 FILLER_1_76
*1358 FILLER_1_769
*1359 FILLER_1_777
*1360 FILLER_1_783
*1361 FILLER_1_790
*1362 FILLER_1_798
*1363 FILLER_1_814
*1364 FILLER_1_822
*1365 FILLER_1_828
*1366 FILLER_1_84
*1367 FILLER_1_846
*1368 FILLER_1_848
*1369 FILLER_1_851
*1370 FILLER_1_854
*1371 FILLER_1_857
*1372 FILLER_1_859
*1373 FILLER_1_876
*1374 FILLER_1_884
*1375 FILLER_1_888
*1376 FILLER_1_90
*1377 FILLER_1_906
*1378 FILLER_1_908
*1379 FILLER_1_911
*1380 FILLER_1_921
*1381 FILLER_1_925
*1382 FILLER_1_942
*1383 FILLER_1_946
*1384 FILLER_1_966
*1385 FILLER_1_98
*1386 FILLER_1_984
*1387 FILLER_1_988
*1388 FILLER_1_992
*1389 FILLER_1_996
*1390 FILLER_20_101
*1391 FILLER_20_1024
*1392 FILLER_20_1028
*1393 FILLER_20_1031
*1394 FILLER_20_105
*1395 FILLER_20_108
*1396 FILLER_20_1095
*1397 FILLER_20_1099
*1398 FILLER_20_1102
*1399 FILLER_20_1166
*1400 FILLER_20_1170
*1401 FILLER_20_1173
*1402 FILLER_20_1237
*1403 FILLER_20_1241
*1404 FILLER_20_1244
*1405 FILLER_20_1276
*1406 FILLER_20_1279
*1407 FILLER_20_1295
*1408 FILLER_20_1311
*1409 FILLER_20_172
*1410 FILLER_20_176
*1411 FILLER_20_179
*1412 FILLER_20_2
*1413 FILLER_20_243
*1414 FILLER_20_247
*1415 FILLER_20_250
*1416 FILLER_20_314
*1417 FILLER_20_318
*1418 FILLER_20_321
*1419 FILLER_20_34
*1420 FILLER_20_37
*1421 FILLER_20_385
*1422 FILLER_20_389
*1423 FILLER_20_392
*1424 FILLER_20_456
*1425 FILLER_20_460
*1426 FILLER_20_463
*1427 FILLER_20_527
*1428 FILLER_20_531
*1429 FILLER_20_534
*1430 FILLER_20_598
*1431 FILLER_20_602
*1432 FILLER_20_605
*1433 FILLER_20_669
*1434 FILLER_20_673
*1435 FILLER_20_676
*1436 FILLER_20_740
*1437 FILLER_20_744
*1438 FILLER_20_747
*1439 FILLER_20_811
*1440 FILLER_20_815
*1441 FILLER_20_818
*1442 FILLER_20_882
*1443 FILLER_20_886
*1444 FILLER_20_889
*1445 FILLER_20_953
*1446 FILLER_20_957
*1447 FILLER_20_960
*1448 FILLER_21_1060
*1449 FILLER_21_1064
*1450 FILLER_21_1067
*1451 FILLER_21_1131
*1452 FILLER_21_1135
*1453 FILLER_21_1138
*1454 FILLER_21_1202
*1455 FILLER_21_1206
*1456 FILLER_21_1209
*1457 FILLER_21_1273
*1458 FILLER_21_1277
*1459 FILLER_21_1280
*1460 FILLER_21_1312
*1461 FILLER_21_137
*1462 FILLER_21_141
*1463 FILLER_21_144
*1464 FILLER_21_2
*1465 FILLER_21_208
*1466 FILLER_21_212
*1467 FILLER_21_215
*1468 FILLER_21_279
*1469 FILLER_21_283
*1470 FILLER_21_286
*1471 FILLER_21_350
*1472 FILLER_21_354
*1473 FILLER_21_357
*1474 FILLER_21_421
*1475 FILLER_21_425
*1476 FILLER_21_428
*1477 FILLER_21_492
*1478 FILLER_21_496
*1479 FILLER_21_499
*1480 FILLER_21_563
*1481 FILLER_21_567
*1482 FILLER_21_570
*1483 FILLER_21_634
*1484 FILLER_21_638
*1485 FILLER_21_641
*1486 FILLER_21_66
*1487 FILLER_21_70
*1488 FILLER_21_705
*1489 FILLER_21_709
*1490 FILLER_21_712
*1491 FILLER_21_73
*1492 FILLER_21_776
*1493 FILLER_21_780
*1494 FILLER_21_783
*1495 FILLER_21_847
*1496 FILLER_21_851
*1497 FILLER_21_854
*1498 FILLER_21_918
*1499 FILLER_21_922
*1500 FILLER_21_925
*1501 FILLER_21_989
*1502 FILLER_21_993
*1503 FILLER_21_996
*1504 FILLER_22_101
*1505 FILLER_22_1024
*1506 FILLER_22_1028
*1507 FILLER_22_1031
*1508 FILLER_22_105
*1509 FILLER_22_108
*1510 FILLER_22_1095
*1511 FILLER_22_1099
*1512 FILLER_22_1102
*1513 FILLER_22_1166
*1514 FILLER_22_1170
*1515 FILLER_22_1173
*1516 FILLER_22_1237
*1517 FILLER_22_1241
*1518 FILLER_22_1244
*1519 FILLER_22_1276
*1520 FILLER_22_1279
*1521 FILLER_22_1295
*1522 FILLER_22_1311
*1523 FILLER_22_172
*1524 FILLER_22_176
*1525 FILLER_22_179
*1526 FILLER_22_2
*1527 FILLER_22_243
*1528 FILLER_22_247
*1529 FILLER_22_250
*1530 FILLER_22_314
*1531 FILLER_22_318
*1532 FILLER_22_321
*1533 FILLER_22_34
*1534 FILLER_22_37
*1535 FILLER_22_385
*1536 FILLER_22_389
*1537 FILLER_22_392
*1538 FILLER_22_456
*1539 FILLER_22_460
*1540 FILLER_22_463
*1541 FILLER_22_527
*1542 FILLER_22_531
*1543 FILLER_22_534
*1544 FILLER_22_598
*1545 FILLER_22_602
*1546 FILLER_22_605
*1547 FILLER_22_669
*1548 FILLER_22_673
*1549 FILLER_22_676
*1550 FILLER_22_740
*1551 FILLER_22_744
*1552 FILLER_22_747
*1553 FILLER_22_811
*1554 FILLER_22_815
*1555 FILLER_22_818
*1556 FILLER_22_882
*1557 FILLER_22_886
*1558 FILLER_22_889
*1559 FILLER_22_953
*1560 FILLER_22_957
*1561 FILLER_22_960
*1562 FILLER_23_1060
*1563 FILLER_23_1064
*1564 FILLER_23_1067
*1565 FILLER_23_1131
*1566 FILLER_23_1135
*1567 FILLER_23_1138
*1568 FILLER_23_1202
*1569 FILLER_23_1206
*1570 FILLER_23_1209
*1571 FILLER_23_1273
*1572 FILLER_23_1277
*1573 FILLER_23_1280
*1574 FILLER_23_1295
*1575 FILLER_23_1311
*1576 FILLER_23_137
*1577 FILLER_23_141
*1578 FILLER_23_144
*1579 FILLER_23_2
*1580 FILLER_23_208
*1581 FILLER_23_212
*1582 FILLER_23_215
*1583 FILLER_23_279
*1584 FILLER_23_283
*1585 FILLER_23_286
*1586 FILLER_23_350
*1587 FILLER_23_354
*1588 FILLER_23_357
*1589 FILLER_23_421
*1590 FILLER_23_425
*1591 FILLER_23_428
*1592 FILLER_23_492
*1593 FILLER_23_496