*SPEF "ieee 1481-1999"
*DESIGN "user_project_wrapper"
*DATE "11:11:11 Fri 11 11, 1111"
*VENDOR "OpenRCX"
*PROGRAM "Parallel Extraction"
*VERSION "1.0"
*DESIGN_FLOW "NAME_SCOPE LOCAL" "PIN_CAP NONE"
*DIVIDER /
*DELIMITER :
*BUS_DELIMITER []
*T_UNIT 1 NS
*C_UNIT 1 PF
*R_UNIT 1 OHM
*L_UNIT 1 HENRY

*NAME_MAP
*1 io_in[0]
*2 io_in[10]
*3 io_in[11]
*4 io_in[12]
*5 io_in[13]
*6 io_in[14]
*7 io_in[15]
*8 io_in[16]
*9 io_in[17]
*10 io_in[18]
*11 io_in[19]
*12 io_in[1]
*13 io_in[20]
*14 io_in[21]
*15 io_in[22]
*16 io_in[23]
*17 io_in[24]
*18 io_in[25]
*19 io_in[26]
*20 io_in[27]
*21 io_in[28]
*22 io_in[29]
*23 io_in[2]
*24 io_in[30]
*25 io_in[31]
*26 io_in[32]
*27 io_in[33]
*28 io_in[34]
*29 io_in[35]
*30 io_in[36]
*31 io_in[37]
*32 io_in[3]
*33 io_in[4]
*34 io_in[5]
*35 io_in[6]
*36 io_in[7]
*37 io_in[8]
*38 io_in[9]
*39 io_oeb[0]
*40 io_oeb[10]
*41 io_oeb[11]
*42 io_oeb[12]
*43 io_oeb[13]
*44 io_oeb[14]
*45 io_oeb[15]
*46 io_oeb[16]
*47 io_oeb[17]
*48 io_oeb[18]
*49 io_oeb[19]
*50 io_oeb[1]
*51 io_oeb[20]
*52 io_oeb[21]
*53 io_oeb[22]
*54 io_oeb[23]
*55 io_oeb[24]
*56 io_oeb[25]
*57 io_oeb[26]
*58 io_oeb[27]
*59 io_oeb[28]
*60 io_oeb[29]
*61 io_oeb[2]
*62 io_oeb[30]
*63 io_oeb[31]
*64 io_oeb[32]
*65 io_oeb[33]
*66 io_oeb[34]
*67 io_oeb[35]
*68 io_oeb[36]
*69 io_oeb[37]
*70 io_oeb[3]
*71 io_oeb[4]
*72 io_oeb[5]
*73 io_oeb[6]
*74 io_oeb[7]
*75 io_oeb[8]
*76 io_oeb[9]
*77 io_out[0]
*78 io_out[10]
*79 io_out[11]
*80 io_out[12]
*81 io_out[13]
*82 io_out[14]
*83 io_out[15]
*84 io_out[16]
*85 io_out[17]
*86 io_out[18]
*87 io_out[19]
*88 io_out[1]
*89 io_out[20]
*90 io_out[21]
*91 io_out[22]
*92 io_out[23]
*93 io_out[24]
*94 io_out[25]
*95 io_out[26]
*96 io_out[27]
*97 io_out[28]
*98 io_out[29]
*99 io_out[2]
*100 io_out[30]
*101 io_out[31]
*102 io_out[32]
*103 io_out[33]
*104 io_out[34]
*105 io_out[35]
*106 io_out[36]
*107 io_out[37]
*108 io_out[3]
*109 io_out[4]
*110 io_out[5]
*111 io_out[6]
*112 io_out[7]
*113 io_out[8]
*114 io_out[9]
*115 la_data_in[0]
*116 la_data_in[10]
*117 la_data_in[11]
*118 la_data_in[12]
*119 la_data_in[13]
*120 la_data_in[14]
*121 la_data_in[15]
*122 la_data_in[16]
*123 la_data_in[17]
*124 la_data_in[18]
*125 la_data_in[19]
*126 la_data_in[1]
*127 la_data_in[20]
*128 la_data_in[21]
*129 la_data_in[22]
*130 la_data_in[23]
*131 la_data_in[24]
*132 la_data_in[25]
*133 la_data_in[26]
*134 la_data_in[27]
*135 la_data_in[28]
*136 la_data_in[29]
*137 la_data_in[2]
*138 la_data_in[30]
*139 la_data_in[31]
*140 la_data_in[32]
*141 la_data_in[33]
*142 la_data_in[34]
*143 la_data_in[35]
*144 la_data_in[36]
*145 la_data_in[37]
*146 la_data_in[38]
*147 la_data_in[39]
*148 la_data_in[3]
*149 la_data_in[40]
*150 la_data_in[41]
*151 la_data_in[42]
*152 la_data_in[43]
*153 la_data_in[44]
*154 la_data_in[45]
*155 la_data_in[46]
*156 la_data_in[47]
*157 la_data_in[48]
*158 la_data_in[49]
*159 la_data_in[4]
*160 la_data_in[50]
*161 la_data_in[51]
*162 la_data_in[52]
*163 la_data_in[53]
*164 la_data_in[54]
*165 la_data_in[55]
*166 la_data_in[56]
*167 la_data_in[57]
*168 la_data_in[58]
*169 la_data_in[59]
*170 la_data_in[5]
*171 la_data_in[60]
*172 la_data_in[61]
*173 la_data_in[62]
*174 la_data_in[63]
*175 la_data_in[6]
*176 la_data_in[7]
*177 la_data_in[8]
*178 la_data_in[9]
*179 la_data_out[0]
*180 la_data_out[10]
*181 la_data_out[11]
*182 la_data_out[12]
*183 la_data_out[13]
*184 la_data_out[14]
*185 la_data_out[15]
*186 la_data_out[16]
*187 la_data_out[17]
*188 la_data_out[18]
*189 la_data_out[19]
*190 la_data_out[1]
*191 la_data_out[20]
*192 la_data_out[21]
*193 la_data_out[22]
*194 la_data_out[23]
*195 la_data_out[24]
*196 la_data_out[25]
*197 la_data_out[26]
*198 la_data_out[27]
*199 la_data_out[28]
*200 la_data_out[29]
*201 la_data_out[2]
*202 la_data_out[30]
*203 la_data_out[31]
*204 la_data_out[32]
*205 la_data_out[33]
*206 la_data_out[34]
*207 la_data_out[35]
*208 la_data_out[36]
*209 la_data_out[37]
*210 la_data_out[38]
*211 la_data_out[39]
*212 la_data_out[3]
*213 la_data_out[40]
*214 la_data_out[41]
*215 la_data_out[42]
*216 la_data_out[43]
*217 la_data_out[44]
*218 la_data_out[45]
*219 la_data_out[46]
*220 la_data_out[47]
*221 la_data_out[48]
*222 la_data_out[49]
*223 la_data_out[4]
*224 la_data_out[50]
*225 la_data_out[51]
*226 la_data_out[52]
*227 la_data_out[53]
*228 la_data_out[54]
*229 la_data_out[55]
*230 la_data_out[56]
*231 la_data_out[57]
*232 la_data_out[58]
*233 la_data_out[59]
*234 la_data_out[5]
*235 la_data_out[60]
*236 la_data_out[61]
*237 la_data_out[62]
*238 la_data_out[63]
*239 la_data_out[6]
*240 la_data_out[7]
*241 la_data_out[8]
*242 la_data_out[9]
*243 la_oenb[0]
*244 la_oenb[10]
*245 la_oenb[11]
*246 la_oenb[12]
*247 la_oenb[13]
*248 la_oenb[14]
*249 la_oenb[15]
*250 la_oenb[16]
*251 la_oenb[17]
*252 la_oenb[18]
*253 la_oenb[19]
*254 la_oenb[1]
*255 la_oenb[20]
*256 la_oenb[21]
*257 la_oenb[22]
*258 la_oenb[23]
*259 la_oenb[24]
*260 la_oenb[25]
*261 la_oenb[26]
*262 la_oenb[27]
*263 la_oenb[28]
*264 la_oenb[29]
*265 la_oenb[2]
*266 la_oenb[30]
*267 la_oenb[31]
*268 la_oenb[32]
*269 la_oenb[33]
*270 la_oenb[34]
*271 la_oenb[35]
*272 la_oenb[36]
*273 la_oenb[37]
*274 la_oenb[38]
*275 la_oenb[39]
*276 la_oenb[3]
*277 la_oenb[40]
*278 la_oenb[41]
*279 la_oenb[42]
*280 la_oenb[43]
*281 la_oenb[44]
*282 la_oenb[45]
*283 la_oenb[46]
*284 la_oenb[47]
*285 la_oenb[48]
*286 la_oenb[49]
*287 la_oenb[4]
*288 la_oenb[50]
*289 la_oenb[51]
*290 la_oenb[52]
*291 la_oenb[53]
*292 la_oenb[54]
*293 la_oenb[55]
*294 la_oenb[56]
*295 la_oenb[57]
*296 la_oenb[58]
*297 la_oenb[59]
*298 la_oenb[5]
*299 la_oenb[60]
*300 la_oenb[61]
*301 la_oenb[62]
*302 la_oenb[63]
*303 la_oenb[6]
*304 la_oenb[7]
*305 la_oenb[8]
*306 la_oenb[9]
*307 user_clock2
*308 user_irq[0]
*309 user_irq[1]
*310 user_irq[2]
*313 wb_clk_i
*314 wb_rst_i
*315 wbs_ack_o
*316 wbs_adr_i[0]
*317 wbs_adr_i[10]
*318 wbs_adr_i[11]
*319 wbs_adr_i[12]
*320 wbs_adr_i[13]
*321 wbs_adr_i[14]
*322 wbs_adr_i[15]
*323 wbs_adr_i[16]
*324 wbs_adr_i[17]
*325 wbs_adr_i[18]
*326 wbs_adr_i[19]
*327 wbs_adr_i[1]
*328 wbs_adr_i[20]
*329 wbs_adr_i[21]
*330 wbs_adr_i[22]
*331 wbs_adr_i[23]
*332 wbs_adr_i[24]
*333 wbs_adr_i[25]
*334 wbs_adr_i[26]
*335 wbs_adr_i[27]
*336 wbs_adr_i[28]
*337 wbs_adr_i[29]
*338 wbs_adr_i[2]
*339 wbs_adr_i[30]
*340 wbs_adr_i[31]
*341 wbs_adr_i[3]
*342 wbs_adr_i[4]
*343 wbs_adr_i[5]
*344 wbs_adr_i[6]
*345 wbs_adr_i[7]
*346 wbs_adr_i[8]
*347 wbs_adr_i[9]
*348 wbs_cyc_i
*349 wbs_dat_i[0]
*350 wbs_dat_i[10]
*351 wbs_dat_i[11]
*352 wbs_dat_i[12]
*353 wbs_dat_i[13]
*354 wbs_dat_i[14]
*355 wbs_dat_i[15]
*356 wbs_dat_i[16]
*357 wbs_dat_i[17]
*358 wbs_dat_i[18]
*359 wbs_dat_i[19]
*360 wbs_dat_i[1]
*361 wbs_dat_i[20]
*362 wbs_dat_i[21]
*363 wbs_dat_i[22]
*364 wbs_dat_i[23]
*365 wbs_dat_i[24]
*366 wbs_dat_i[25]
*367 wbs_dat_i[26]
*368 wbs_dat_i[27]
*369 wbs_dat_i[28]
*370 wbs_dat_i[29]
*371 wbs_dat_i[2]
*372 wbs_dat_i[30]
*373 wbs_dat_i[31]
*374 wbs_dat_i[3]
*375 wbs_dat_i[4]
*376 wbs_dat_i[5]
*377 wbs_dat_i[6]
*378 wbs_dat_i[7]
*379 wbs_dat_i[8]
*380 wbs_dat_i[9]
*381 wbs_dat_o[0]
*382 wbs_dat_o[10]
*383 wbs_dat_o[11]
*384 wbs_dat_o[12]
*385 wbs_dat_o[13]
*386 wbs_dat_o[14]
*387 wbs_dat_o[15]
*388 wbs_dat_o[16]
*389 wbs_dat_o[17]
*390 wbs_dat_o[18]
*391 wbs_dat_o[19]
*392 wbs_dat_o[1]
*393 wbs_dat_o[20]
*394 wbs_dat_o[21]
*395 wbs_dat_o[22]
*396 wbs_dat_o[23]
*397 wbs_dat_o[24]
*398 wbs_dat_o[25]
*399 wbs_dat_o[26]
*400 wbs_dat_o[27]
*401 wbs_dat_o[28]
*402 wbs_dat_o[29]
*403 wbs_dat_o[2]
*404 wbs_dat_o[30]
*405 wbs_dat_o[31]
*406 wbs_dat_o[3]
*407 wbs_dat_o[4]
*408 wbs_dat_o[5]
*409 wbs_dat_o[6]
*410 wbs_dat_o[7]
*411 wbs_dat_o[8]
*412 wbs_dat_o[9]
*413 wbs_sel_i[0]
*414 wbs_sel_i[1]
*415 wbs_sel_i[2]
*416 wbs_sel_i[3]
*417 wbs_stb_i
*418 wbs_we_i
*419 addr0_mem0\[0\]
*420 addr0_mem0\[1\]
*421 addr0_mem0\[2\]
*422 addr0_mem0\[3\]
*423 addr0_mem0\[4\]
*424 addr0_mem0\[5\]
*425 addr0_mem0\[6\]
*426 addr0_mem0\[7\]
*427 addr0_mem0\[8\]
*428 addr0_mem1\[0\]
*429 addr0_mem1\[1\]
*430 addr0_mem1\[2\]
*431 addr0_mem1\[3\]
*432 addr0_mem1\[4\]
*433 addr0_mem1\[5\]
*434 addr0_mem1\[6\]
*435 addr0_mem1\[7\]
*436 addr0_mem1\[8\]
*437 addr1\[0\]
*438 addr1\[1\]
*439 addr1\[2\]
*440 addr1\[3\]
*441 addr1\[4\]
*442 addr1\[5\]
*443 addr1\[6\]
*444 addr1\[7\]
*445 addr1\[8\]
*446 addr1\[9\]
*447 addr1_mem0\[0\]
*448 addr1_mem0\[1\]
*449 addr1_mem0\[2\]
*450 addr1_mem0\[3\]
*451 addr1_mem0\[4\]
*452 addr1_mem0\[5\]
*453 addr1_mem0\[6\]
*454 addr1_mem0\[7\]
*455 addr1_mem0\[8\]
*456 addr1_mem1\[0\]
*457 addr1_mem1\[1\]
*458 addr1_mem1\[2\]
*459 addr1_mem1\[3\]
*460 addr1_mem1\[4\]
*461 addr1_mem1\[5\]
*462 addr1_mem1\[6\]
*463 addr1_mem1\[7\]
*464 addr1_mem1\[8\]
*465 csb0_mem0
*466 csb0_mem1
*467 csb1
*468 csb1_mem0
*469 csb1_mem1
*470 din0_mem0\[0\]
*471 din0_mem0\[10\]
*472 din0_mem0\[11\]
*473 din0_mem0\[12\]
*474 din0_mem0\[13\]
*475 din0_mem0\[14\]
*476 din0_mem0\[15\]
*477 din0_mem0\[16\]
*478 din0_mem0\[17\]
*479 din0_mem0\[18\]
*480 din0_mem0\[19\]
*481 din0_mem0\[1\]
*482 din0_mem0\[20\]
*483 din0_mem0\[21\]
*484 din0_mem0\[22\]
*485 din0_mem0\[23\]
*486 din0_mem0\[24\]
*487 din0_mem0\[25\]
*488 din0_mem0\[26\]
*489 din0_mem0\[27\]
*490 din0_mem0\[28\]
*491 din0_mem0\[29\]
*492 din0_mem0\[2\]
*493 din0_mem0\[30\]
*494 din0_mem0\[31\]
*495 din0_mem0\[3\]
*496 din0_mem0\[4\]
*497 din0_mem0\[5\]
*498 din0_mem0\[6\]
*499 din0_mem0\[7\]
*500 din0_mem0\[8\]
*501 din0_mem0\[9\]
*502 din0_mem1\[0\]
*503 din0_mem1\[10\]
*504 din0_mem1\[11\]
*505 din0_mem1\[12\]
*506 din0_mem1\[13\]
*507 din0_mem1\[14\]
*508 din0_mem1\[15\]
*509 din0_mem1\[16\]
*510 din0_mem1\[17\]
*511 din0_mem1\[18\]
*512 din0_mem1\[19\]
*513 din0_mem1\[1\]
*514 din0_mem1\[20\]
*515 din0_mem1\[21\]
*516 din0_mem1\[22\]
*517 din0_mem1\[23\]
*518 din0_mem1\[24\]
*519 din0_mem1\[25\]
*520 din0_mem1\[26\]
*521 din0_mem1\[27\]
*522 din0_mem1\[28\]
*523 din0_mem1\[29\]
*524 din0_mem1\[2\]
*525 din0_mem1\[30\]
*526 din0_mem1\[31\]
*527 din0_mem1\[3\]
*528 din0_mem1\[4\]
*529 din0_mem1\[5\]
*530 din0_mem1\[6\]
*531 din0_mem1\[7\]
*532 din0_mem1\[8\]
*533 din0_mem1\[9\]
*534 dout0_mem0\[0\]
*535 dout0_mem0\[10\]
*536 dout0_mem0\[11\]
*537 dout0_mem0\[12\]
*538 dout0_mem0\[13\]
*539 dout0_mem0\[14\]
*540 dout0_mem0\[15\]
*541 dout0_mem0\[16\]
*542 dout0_mem0\[17\]
*543 dout0_mem0\[18\]
*544 dout0_mem0\[19\]
*545 dout0_mem0\[1\]
*546 dout0_mem0\[20\]
*547 dout0_mem0\[21\]
*548 dout0_mem0\[22\]
*549 dout0_mem0\[23\]
*550 dout0_mem0\[24\]
*551 dout0_mem0\[25\]
*552 dout0_mem0\[26\]
*553 dout0_mem0\[27\]
*554 dout0_mem0\[28\]
*555 dout0_mem0\[29\]
*556 dout0_mem0\[2\]
*557 dout0_mem0\[30\]
*558 dout0_mem0\[31\]
*559 dout0_mem0\[3\]
*560 dout0_mem0\[4\]
*561 dout0_mem0\[5\]
*562 dout0_mem0\[6\]
*563 dout0_mem0\[7\]
*564 dout0_mem0\[8\]
*565 dout0_mem0\[9\]
*566 dout0_mem1\[0\]
*567 dout0_mem1\[10\]
*568 dout0_mem1\[11\]
*569 dout0_mem1\[12\]
*570 dout0_mem1\[13\]
*571 dout0_mem1\[14\]
*572 dout0_mem1\[15\]
*573 dout0_mem1\[16\]
*574 dout0_mem1\[17\]
*575 dout0_mem1\[18\]
*576 dout0_mem1\[19\]
*577 dout0_mem1\[1\]
*578 dout0_mem1\[20\]
*579 dout0_mem1\[21\]
*580 dout0_mem1\[22\]
*581 dout0_mem1\[23\]
*582 dout0_mem1\[24\]
*583 dout0_mem1\[25\]
*584 dout0_mem1\[26\]
*585 dout0_mem1\[27\]
*586 dout0_mem1\[28\]
*587 dout0_mem1\[29\]
*588 dout0_mem1\[2\]
*589 dout0_mem1\[30\]
*590 dout0_mem1\[31\]
*591 dout0_mem1\[3\]
*592 dout0_mem1\[4\]
*593 dout0_mem1\[5\]
*594 dout0_mem1\[6\]
*595 dout0_mem1\[7\]
*596 dout0_mem1\[8\]
*597 dout0_mem1\[9\]
*598 dout1\[0\]
*599 dout1\[10\]
*600 dout1\[11\]
*601 dout1\[12\]
*602 dout1\[13\]
*603 dout1\[14\]
*604 dout1\[15\]
*605 dout1\[16\]
*606 dout1\[17\]
*607 dout1\[18\]
*608 dout1\[19\]
*609 dout1\[1\]
*610 dout1\[20\]
*611 dout1\[21\]
*612 dout1\[22\]
*613 dout1\[23\]
*614 dout1\[24\]
*615 dout1\[25\]
*616 dout1\[26\]
*617 dout1\[27\]
*618 dout1\[28\]
*619 dout1\[29\]
*620 dout1\[2\]
*621 dout1\[30\]
*622 dout1\[31\]
*623 dout1\[3\]
*624 dout1\[4\]
*625 dout1\[5\]
*626 dout1\[6\]
*627 dout1\[7\]
*628 dout1\[8\]
*629 dout1\[9\]
*630 dout1_mem0\[0\]
*631 dout1_mem0\[10\]
*632 dout1_mem0\[11\]
*633 dout1_mem0\[12\]
*634 dout1_mem0\[13\]
*635 dout1_mem0\[14\]
*636 dout1_mem0\[15\]
*637 dout1_mem0\[16\]
*638 dout1_mem0\[17\]
*639 dout1_mem0\[18\]
*640 dout1_mem0\[19\]
*641 dout1_mem0\[1\]
*642 dout1_mem0\[20\]
*643 dout1_mem0\[21\]
*644 dout1_mem0\[22\]
*645 dout1_mem0\[23\]
*646 dout1_mem0\[24\]
*647 dout1_mem0\[25\]
*648 dout1_mem0\[26\]
*649 dout1_mem0\[27\]
*650 dout1_mem0\[28\]
*651 dout1_mem0\[29\]
*652 dout1_mem0\[2\]
*653 dout1_mem0\[30\]
*654 dout1_mem0\[31\]
*655 dout1_mem0\[3\]
*656 dout1_mem0\[4\]
*657 dout1_mem0\[5\]
*658 dout1_mem0\[6\]
*659 dout1_mem0\[7\]
*660 dout1_mem0\[8\]
*661 dout1_mem0\[9\]
*662 dout1_mem1\[0\]
*663 dout1_mem1\[10\]
*664 dout1_mem1\[11\]
*665 dout1_mem1\[12\]
*666 dout1_mem1\[13\]
*667 dout1_mem1\[14\]
*668 dout1_mem1\[15\]
*669 dout1_mem1\[16\]
*670 dout1_mem1\[17\]
*671 dout1_mem1\[18\]
*672 dout1_mem1\[19\]
*673 dout1_mem1\[1\]
*674 dout1_mem1\[20\]
*675 dout1_mem1\[21\]
*676 dout1_mem1\[22\]
*677 dout1_mem1\[23\]
*678 dout1_mem1\[24\]
*679 dout1_mem1\[25\]
*680 dout1_mem1\[26\]
*681 dout1_mem1\[27\]
*682 dout1_mem1\[28\]
*683 dout1_mem1\[29\]
*684 dout1_mem1\[2\]
*685 dout1_mem1\[30\]
*686 dout1_mem1\[31\]
*687 dout1_mem1\[3\]
*688 dout1_mem1\[4\]
*689 dout1_mem1\[5\]
*690 dout1_mem1\[6\]
*691 dout1_mem1\[7\]
*692 dout1_mem1\[8\]
*693 dout1_mem1\[9\]
*694 io_wbs_ack_0
*695 io_wbs_ack_1
*696 io_wbs_adr_0\[0\]
*697 io_wbs_adr_0\[10\]
*698 io_wbs_adr_0\[11\]
*699 io_wbs_adr_0\[12\]
*700 io_wbs_adr_0\[13\]
*701 io_wbs_adr_0\[14\]
*702 io_wbs_adr_0\[15\]
*703 io_wbs_adr_0\[16\]
*704 io_wbs_adr_0\[17\]
*705 io_wbs_adr_0\[18\]
*706 io_wbs_adr_0\[19\]
*707 io_wbs_adr_0\[1\]
*708 io_wbs_adr_0\[20\]
*709 io_wbs_adr_0\[21\]
*710 io_wbs_adr_0\[22\]
*711 io_wbs_adr_0\[23\]
*712 io_wbs_adr_0\[24\]
*713 io_wbs_adr_0\[25\]
*714 io_wbs_adr_0\[26\]
*715 io_wbs_adr_0\[27\]
*716 io_wbs_adr_0\[28\]
*717 io_wbs_adr_0\[29\]
*718 io_wbs_adr_0\[2\]
*719 io_wbs_adr_0\[30\]
*720 io_wbs_adr_0\[31\]
*721 io_wbs_adr_0\[3\]
*722 io_wbs_adr_0\[4\]
*723 io_wbs_adr_0\[5\]
*724 io_wbs_adr_0\[6\]
*725 io_wbs_adr_0\[7\]
*726 io_wbs_adr_0\[8\]
*727 io_wbs_adr_0\[9\]
*728 io_wbs_adr_1\[0\]
*729 io_wbs_adr_1\[10\]
*730 io_wbs_adr_1\[11\]
*731 io_wbs_adr_1\[12\]
*732 io_wbs_adr_1\[13\]
*733 io_wbs_adr_1\[14\]
*734 io_wbs_adr_1\[15\]
*735 io_wbs_adr_1\[16\]
*736 io_wbs_adr_1\[17\]
*737 io_wbs_adr_1\[18\]
*738 io_wbs_adr_1\[19\]
*739 io_wbs_adr_1\[1\]
*740 io_wbs_adr_1\[20\]
*741 io_wbs_adr_1\[21\]
*742 io_wbs_adr_1\[22\]
*743 io_wbs_adr_1\[23\]
*744 io_wbs_adr_1\[24\]
*745 io_wbs_adr_1\[25\]
*746 io_wbs_adr_1\[26\]
*747 io_wbs_adr_1\[27\]
*748 io_wbs_adr_1\[28\]
*749 io_wbs_adr_1\[29\]
*750 io_wbs_adr_1\[2\]
*751 io_wbs_adr_1\[30\]
*752 io_wbs_adr_1\[31\]
*753 io_wbs_adr_1\[3\]
*754 io_wbs_adr_1\[4\]
*755 io_wbs_adr_1\[5\]
*756 io_wbs_adr_1\[6\]
*757 io_wbs_adr_1\[7\]
*758 io_wbs_adr_1\[8\]
*759 io_wbs_adr_1\[9\]
*760 io_wbs_cyc_0
*761 io_wbs_cyc_1
*762 io_wbs_datrd_0\[0\]
*763 io_wbs_datrd_0\[10\]
*764 io_wbs_datrd_0\[11\]
*765 io_wbs_datrd_0\[12\]
*766 io_wbs_datrd_0\[13\]
*767 io_wbs_datrd_0\[14\]
*768 io_wbs_datrd_0\[15\]
*769 io_wbs_datrd_0\[16\]
*770 io_wbs_datrd_0\[17\]
*771 io_wbs_datrd_0\[18\]
*772 io_wbs_datrd_0\[19\]
*773 io_wbs_datrd_0\[1\]
*774 io_wbs_datrd_0\[20\]
*775 io_wbs_datrd_0\[21\]
*776 io_wbs_datrd_0\[22\]
*777 io_wbs_datrd_0\[23\]
*778 io_wbs_datrd_0\[24\]
*779 io_wbs_datrd_0\[25\]
*780 io_wbs_datrd_0\[26\]
*781 io_wbs_datrd_0\[27\]
*782 io_wbs_datrd_0\[28\]
*783 io_wbs_datrd_0\[29\]
*784 io_wbs_datrd_0\[2\]
*785 io_wbs_datrd_0\[30\]
*786 io_wbs_datrd_0\[31\]
*787 io_wbs_datrd_0\[3\]
*788 io_wbs_datrd_0\[4\]
*789 io_wbs_datrd_0\[5\]
*790 io_wbs_datrd_0\[6\]
*791 io_wbs_datrd_0\[7\]
*792 io_wbs_datrd_0\[8\]
*793 io_wbs_datrd_0\[9\]
*794 io_wbs_datrd_1\[0\]
*795 io_wbs_datrd_1\[10\]
*796 io_wbs_datrd_1\[11\]
*797 io_wbs_datrd_1\[12\]
*798 io_wbs_datrd_1\[13\]
*799 io_wbs_datrd_1\[14\]
*800 io_wbs_datrd_1\[15\]
*801 io_wbs_datrd_1\[16\]
*802 io_wbs_datrd_1\[17\]
*803 io_wbs_datrd_1\[18\]
*804 io_wbs_datrd_1\[19\]
*805 io_wbs_datrd_1\[1\]
*806 io_wbs_datrd_1\[20\]
*807 io_wbs_datrd_1\[21\]
*808 io_wbs_datrd_1\[22\]
*809 io_wbs_datrd_1\[23\]
*810 io_wbs_datrd_1\[24\]
*811 io_wbs_datrd_1\[25\]
*812 io_wbs_datrd_1\[26\]
*813 io_wbs_datrd_1\[27\]
*814 io_wbs_datrd_1\[28\]
*815 io_wbs_datrd_1\[29\]
*816 io_wbs_datrd_1\[2\]
*817 io_wbs_datrd_1\[30\]
*818 io_wbs_datrd_1\[31\]
*819 io_wbs_datrd_1\[3\]
*820 io_wbs_datrd_1\[4\]
*821 io_wbs_datrd_1\[5\]
*822 io_wbs_datrd_1\[6\]
*823 io_wbs_datrd_1\[7\]
*824 io_wbs_datrd_1\[8\]
*825 io_wbs_datrd_1\[9\]
*826 io_wbs_datwr_0\[0\]
*827 io_wbs_datwr_0\[10\]
*828 io_wbs_datwr_0\[11\]
*829 io_wbs_datwr_0\[12\]
*830 io_wbs_datwr_0\[13\]
*831 io_wbs_datwr_0\[14\]
*832 io_wbs_datwr_0\[15\]
*833 io_wbs_datwr_0\[16\]
*834 io_wbs_datwr_0\[17\]
*835 io_wbs_datwr_0\[18\]
*836 io_wbs_datwr_0\[19\]
*837 io_wbs_datwr_0\[1\]
*838 io_wbs_datwr_0\[20\]
*839 io_wbs_datwr_0\[21\]
*840 io_wbs_datwr_0\[22\]
*841 io_wbs_datwr_0\[23\]
*842 io_wbs_datwr_0\[24\]
*843 io_wbs_datwr_0\[25\]
*844 io_wbs_datwr_0\[26\]
*845 io_wbs_datwr_0\[27\]
*846 io_wbs_datwr_0\[28\]
*847 io_wbs_datwr_0\[29\]
*848 io_wbs_datwr_0\[2\]
*849 io_wbs_datwr_0\[30\]
*850 io_wbs_datwr_0\[31\]
*851 io_wbs_datwr_0\[3\]
*852 io_wbs_datwr_0\[4\]
*853 io_wbs_datwr_0\[5\]
*854 io_wbs_datwr_0\[6\]
*855 io_wbs_datwr_0\[7\]
*856 io_wbs_datwr_0\[8\]
*857 io_wbs_datwr_0\[9\]
*858 io_wbs_datwr_1\[0\]
*859 io_wbs_datwr_1\[10\]
*860 io_wbs_datwr_1\[11\]
*861 io_wbs_datwr_1\[12\]
*862 io_wbs_datwr_1\[13\]
*863 io_wbs_datwr_1\[14\]
*864 io_wbs_datwr_1\[15\]
*865 io_wbs_datwr_1\[16\]
*866 io_wbs_datwr_1\[17\]
*867 io_wbs_datwr_1\[18\]
*868 io_wbs_datwr_1\[19\]
*869 io_wbs_datwr_1\[1\]
*870 io_wbs_datwr_1\[20\]
*871 io_wbs_datwr_1\[21\]
*872 io_wbs_datwr_1\[22\]
*873 io_wbs_datwr_1\[23\]
*874 io_wbs_datwr_1\[24\]
*875 io_wbs_datwr_1\[25\]
*876 io_wbs_datwr_1\[26\]
*877 io_wbs_datwr_1\[27\]
*878 io_wbs_datwr_1\[28\]
*879 io_wbs_datwr_1\[29\]
*880 io_wbs_datwr_1\[2\]
*881 io_wbs_datwr_1\[30\]
*882 io_wbs_datwr_1\[31\]
*883 io_wbs_datwr_1\[3\]
*884 io_wbs_datwr_1\[4\]
*885 io_wbs_datwr_1\[5\]
*886 io_wbs_datwr_1\[6\]
*887 io_wbs_datwr_1\[7\]
*888 io_wbs_datwr_1\[8\]
*889 io_wbs_datwr_1\[9\]
*890 io_wbs_sel_1\[0\]
*891 io_wbs_sel_1\[1\]
*892 io_wbs_sel_1\[2\]
*893 io_wbs_sel_1\[3\]
*894 io_wbs_stb_0
*895 io_wbs_stb_1
*896 io_wbs_we_0
*897 io_wbs_we_1
*898 unused\[0\]
*899 unused\[10\]
*900 unused\[11\]
*901 unused\[12\]
*902 unused\[13\]
*903 unused\[14\]
*904 unused\[15\]
*905 unused\[16\]
*906 unused\[17\]
*907 unused\[18\]
*908 unused\[19\]
*909 unused\[1\]
*910 unused\[20\]
*911 unused\[21\]
*912 unused\[22\]
*913 unused\[23\]
*914 unused\[2\]
*915 unused\[3\]
*916 unused\[4\]
*917 unused\[5\]
*918 unused\[6\]
*919 unused\[7\]
*920 unused\[8\]
*921 unused\[9\]
*922 web0_mem0
*923 web0_mem1
*924 wmask0_mem0\[0\]
*925 wmask0_mem0\[1\]
*926 wmask0_mem0\[2\]
*927 wmask0_mem0\[3\]
*928 wmask0_mem1\[0\]
*929 wmask0_mem1\[1\]
*930 wmask0_mem1\[2\]
*931 wmask0_mem1\[3\]
*932 dffram_1rw1r_32_64_inst
*933 merge_memory_inst
*934 wb_memory_inst
*935 wb_mux_inst
*936 wfg_top_inst

*PORTS
io_in[0] I
io_in[10] I
io_in[11] I
io_in[12] I
io_in[13] I
io_in[14] I
io_in[15] I
io_in[16] I
io_in[17] I
io_in[18] I
io_in[19] I
io_in[1] I
io_in[20] I
io_in[21] I
io_in[22] I
io_in[23] I
io_in[24] I
io_in[25] I
io_in[26] I
io_in[27] I
io_in[28] I
io_in[29] I
io_in[2] I
io_in[30] I
io_in[31] I
io_in[32] I
io_in[33] I
io_in[34] I
io_in[35] I
io_in[36] I
io_in[37] I
io_in[3] I
io_in[4] I
io_in[5] I
io_in[6] I
io_in[7] I
io_in[8] I
io_in[9] I
io_oeb[0] O
io_oeb[10] O
io_oeb[11] O
io_oeb[12] O
io_oeb[13] O
io_oeb[14] O
io_oeb[15] O
io_oeb[16] O
io_oeb[17] O
io_oeb[18] O
io_oeb[19] O
io_oeb[1] O
io_oeb[20] O
io_oeb[21] O
io_oeb[22] O
io_oeb[23] O
io_oeb[24] O
io_oeb[25] O
io_oeb[26] O
io_oeb[27] O
io_oeb[28] O
io_oeb[29] O
io_oeb[2] O
io_oeb[30] O
io_oeb[31] O
io_oeb[32] O
io_oeb[33] O
io_oeb[34] O
io_oeb[35] O
io_oeb[36] O
io_oeb[37] O
io_oeb[3] O
io_oeb[4] O
io_oeb[5] O
io_oeb[6] O
io_oeb[7] O
io_oeb[8] O
io_oeb[9] O
io_out[0] O
io_out[10] O
io_out[11] O
io_out[12] O
io_out[13] O
io_out[14] O
io_out[15] O
io_out[16] O
io_out[17] O
io_out[18] O
io_out[19] O
io_out[1] O
io_out[20] O
io_out[21] O
io_out[22] O
io_out[23] O
io_out[24] O
io_out[25] O
io_out[26] O
io_out[27] O
io_out[28] O
io_out[29] O
io_out[2] O
io_out[30] O
io_out[31] O
io_out[32] O
io_out[33] O
io_out[34] O
io_out[35] O
io_out[36] O
io_out[37] O
io_out[3] O
io_out[4] O
io_out[5] O
io_out[6] O
io_out[7] O
io_out[8] O
io_out[9] O
la_data_in[0] I
la_data_in[10] I
la_data_in[11] I
la_data_in[12] I
la_data_in[13] I
la_data_in[14] I
la_data_in[15] I
la_data_in[16] I
la_data_in[17] I
la_data_in[18] I
la_data_in[19] I
la_data_in[1] I
la_data_in[20] I
la_data_in[21] I
la_data_in[22] I
la_data_in[23] I
la_data_in[24] I
la_data_in[25] I
la_data_in[26] I
la_data_in[27] I
la_data_in[28] I
la_data_in[29] I
la_data_in[2] I
la_data_in[30] I
la_data_in[31] I
la_data_in[32] I
la_data_in[33] I
la_data_in[34] I
la_data_in[35] I
la_data_in[36] I
la_data_in[37] I
la_data_in[38] I
la_data_in[39] I
la_data_in[3] I
la_data_in[40] I
la_data_in[41] I
la_data_in[42] I
la_data_in[43] I
la_data_in[44] I
la_data_in[45] I
la_data_in[46] I
la_data_in[47] I
la_data_in[48] I
la_data_in[49] I
la_data_in[4] I
la_data_in[50] I
la_data_in[51] I
la_data_in[52] I
la_data_in[53] I
la_data_in[54] I
la_data_in[55] I
la_data_in[56] I
la_data_in[57] I
la_data_in[58] I
la_data_in[59] I
la_data_in[5] I
la_data_in[60] I
la_data_in[61] I
la_data_in[62] I
la_data_in[63] I
la_data_in[6] I
la_data_in[7] I
la_data_in[8] I
la_data_in[9] I
la_data_out[0] O
la_data_out[10] O
la_data_out[11] O
la_data_out[12] O
la_data_out[13] O
la_data_out[14] O
la_data_out[15] O
la_data_out[16] O
la_data_out[17] O
la_data_out[18] O
la_data_out[19] O
la_data_out[1] O
la_data_out[20] O
la_data_out[21] O
la_data_out[22] O
la_data_out[23] O
la_data_out[24] O
la_data_out[25] O
la_data_out[26] O
la_data_out[27] O
la_data_out[28] O
la_data_out[29] O
la_data_out[2] O
la_data_out[30] O
la_data_out[31] O
la_data_out[32] O
la_data_out[33] O
la_data_out[34] O
la_data_out[35] O
la_data_out[36] O
la_data_out[37] O
la_data_out[38] O
la_data_out[39] O
la_data_out[3] O
la_data_out[40] O
la_data_out[41] O
la_data_out[42] O
la_data_out[43] O
la_data_out[44] O
la_data_out[45] O
la_data_out[46] O
la_data_out[47] O
la_data_out[48] O
la_data_out[49] O
la_data_out[4] O
la_data_out[50] O
la_data_out[51] O
la_data_out[52] O
la_data_out[53] O
la_data_out[54] O
la_data_out[55] O
la_data_out[56] O
la_data_out[57] O
la_data_out[58] O
la_data_out[59] O
la_data_out[5] O
la_data_out[60] O
la_data_out[61] O
la_data_out[62] O
la_data_out[63] O
la_data_out[6] O
la_data_out[7] O
la_data_out[8] O
la_data_out[9] O
la_oenb[0] I
la_oenb[10] I
la_oenb[11] I
la_oenb[12] I
la_oenb[13] I
la_oenb[14] I
la_oenb[15] I
la_oenb[16] I
la_oenb[17] I
la_oenb[18] I
la_oenb[19] I
la_oenb[1] I
la_oenb[20] I
la_oenb[21] I
la_oenb[22] I
la_oenb[23] I
la_oenb[24] I
la_oenb[25] I
la_oenb[26] I
la_oenb[27] I
la_oenb[28] I
la_oenb[29] I
la_oenb[2] I
la_oenb[30] I
la_oenb[31] I
la_oenb[32] I
la_oenb[33] I
la_oenb[34] I
la_oenb[35] I
la_oenb[36] I
la_oenb[37] I
la_oenb[38] I
la_oenb[39] I
la_oenb[3] I
la_oenb[40] I
la_oenb[41] I
la_oenb[42] I
la_oenb[43] I
la_oenb[44] I
la_oenb[45] I
la_oenb[46] I
la_oenb[47] I
la_oenb[48] I
la_oenb[49] I
la_oenb[4] I
la_oenb[50] I
la_oenb[51] I
la_oenb[52] I
la_oenb[53] I
la_oenb[54] I
la_oenb[55] I
la_oenb[56] I
la_oenb[57] I
la_oenb[58] I
la_oenb[59] I
la_oenb[5] I
la_oenb[60] I
la_oenb[61] I
la_oenb[62] I
la_oenb[63] I
la_oenb[6] I
la_oenb[7] I
la_oenb[8] I
la_oenb[9] I
user_clock2 I
user_irq[0] O
user_irq[1] O
user_irq[2] O
wb_clk_i I
wb_rst_i I
wbs_ack_o O
wbs_adr_i[0] I
wbs_adr_i[10] I
wbs_adr_i[11] I
wbs_adr_i[12] I
wbs_adr_i[13] I
wbs_adr_i[14] I
wbs_adr_i[15] I
wbs_adr_i[16] I
wbs_adr_i[17] I
wbs_adr_i[18] I
wbs_adr_i[19] I
wbs_adr_i[1] I
wbs_adr_i[20] I
wbs_adr_i[21] I
wbs_adr_i[22] I
wbs_adr_i[23] I
wbs_adr_i[24] I
wbs_adr_i[25] I
wbs_adr_i[26] I
wbs_adr_i[27] I
wbs_adr_i[28] I
wbs_adr_i[29] I
wbs_adr_i[2] I
wbs_adr_i[30] I
wbs_adr_i[31] I
wbs_adr_i[3] I
wbs_adr_i[4] I
wbs_adr_i[5] I
wbs_adr_i[6] I
wbs_adr_i[7] I
wbs_adr_i[8] I
wbs_adr_i[9] I
wbs_cyc_i I
wbs_dat_i[0] I
wbs_dat_i[10] I
wbs_dat_i[11] I
wbs_dat_i[12] I
wbs_dat_i[13] I
wbs_dat_i[14] I
wbs_dat_i[15] I
wbs_dat_i[16] I
wbs_dat_i[17] I
wbs_dat_i[18] I
wbs_dat_i[19] I
wbs_dat_i[1] I
wbs_dat_i[20] I
wbs_dat_i[21] I
wbs_dat_i[22] I
wbs_dat_i[23] I
wbs_dat_i[24] I
wbs_dat_i[25] I
wbs_dat_i[26] I
wbs_dat_i[27] I
wbs_dat_i[28] I
wbs_dat_i[29] I
wbs_dat_i[2] I
wbs_dat_i[30] I
wbs_dat_i[31] I
wbs_dat_i[3] I
wbs_dat_i[4] I
wbs_dat_i[5] I
wbs_dat_i[6] I
wbs_dat_i[7] I
wbs_dat_i[8] I
wbs_dat_i[9] I
wbs_dat_o[0] O
wbs_dat_o[10] O
wbs_dat_o[11] O
wbs_dat_o[12] O
wbs_dat_o[13] O
wbs_dat_o[14] O
wbs_dat_o[15] O
wbs_dat_o[16] O
wbs_dat_o[17] O
wbs_dat_o[18] O
wbs_dat_o[19] O
wbs_dat_o[1] O
wbs_dat_o[20] O
wbs_dat_o[21] O
wbs_dat_o[22] O
wbs_dat_o[23] O
wbs_dat_o[24] O
wbs_dat_o[25] O
wbs_dat_o[26] O
wbs_dat_o[27] O
wbs_dat_o[28] O
wbs_dat_o[29] O
wbs_dat_o[2] O
wbs_dat_o[30] O
wbs_dat_o[31] O
wbs_dat_o[3] O
wbs_dat_o[4] O
wbs_dat_o[5] O
wbs_dat_o[6] O
wbs_dat_o[7] O
wbs_dat_o[8] O
wbs_dat_o[9] O
wbs_sel_i[0] I
wbs_sel_i[1] I
wbs_sel_i[2] I
wbs_sel_i[3] I
wbs_stb_i I
wbs_we_i I

*D_NET *40 0.126304
*CONN
*P io_oeb[10] O
*I *936:io_oeb[2] O *D wfg_top
*CAP
1 io_oeb[10] 0.00791801
2 *936:io_oeb[2] 0.000309483
3 *40:13 0.00791801
4 *40:11 0.0273704
5 *40:10 0.0273704
6 *40:8 0.00108418
7 *40:7 0.00139366
8 *40:8 *42:8 0.0254219
9 *40:8 *76:8 0.00202994
10 *40:8 *79:8 0.025488
*RES
1 *936:io_oeb[2] *40:7 6.705 
2 *40:7 *40:8 74.97 
3 *40:8 *40:10 4.5 
4 *40:10 *40:11 210.87 
5 *40:11 *40:13 4.5 
6 *40:13 io_oeb[10] 62.325 
*END

*D_NET *41 0.0872345
*CONN
*P io_oeb[11] O
*I *936:io_oeb[3] O *D wfg_top
*CAP
1 io_oeb[11] 0.000210342
2 *936:io_oeb[3] 0.000801854
3 *41:14 0.0117076
4 *41:13 0.0114972
5 *41:11 0.019852
6 *41:10 0.0226327
7 *41:7 0.00358257
8 *41:10 *81:8 0.0169503
*RES
1 *936:io_oeb[3] *41:7 9.765 
2 *41:7 *41:10 46.89 
3 *41:10 *41:11 151.83 
4 *41:11 *41:13 4.5 
5 *41:13 *41:14 89.37 
6 *41:14 io_oeb[11] 2.475 
*END

*D_NET *42 0.0847492
*CONN
*P io_oeb[12] O
*I *936:io_oeb[4] O *D wfg_top
*CAP
1 io_oeb[12] 0.00459034
2 *936:io_oeb[4] 0.000348441
3 *42:16 0.00764867
4 *42:11 0.0139836
5 *42:10 0.0109253
6 *42:8 0.00180151
7 *42:7 0.00214995
8 *42:8 *76:8 0.0178795
9 *40:8 *42:8 0.0254219
*RES
1 *936:io_oeb[4] *42:7 6.885 
2 *42:7 *42:8 66.51 
3 *42:8 *42:10 4.5 
4 *42:10 *42:11 84.15 
5 *42:11 *42:16 27.99 
6 *42:16 io_oeb[12] 36.675 
*END

*D_NET *43 0.0585813
*CONN
*P io_oeb[13] O
*I *936:io_oeb[5] O *D wfg_top
*CAP
1 io_oeb[13] 0.0032329
2 *936:io_oeb[5] 0
3 *43:5 0.0123833
4 *43:4 0.00915043
5 *43:5 *75:5 0.0137234
6 *43:5 *80:5 0.0200913
*RES
1 *936:io_oeb[5] *43:4 4.5 
2 *43:4 *43:5 112.23 
3 *43:5 io_oeb[13] 34.335 
*END

*D_NET *44 0.0514316
*CONN
*P io_oeb[14] O
*I *936:io_oeb[6] O *D wfg_top
*CAP
1 io_oeb[14] 0.00100991
2 *936:io_oeb[6] 0.00130941
3 *44:13 0.00589489
4 *44:8 0.0163945
5 *44:7 0.012819
6 *44:8 *45:14 0.00759306
7 *44:8 *47:10 0.00641078
*RES
1 *936:io_oeb[6] *44:7 13.365 
2 *44:7 *44:8 106.65 
3 *44:8 *44:13 46.35 
4 *44:13 io_oeb[14] 8.325 
*END

*D_NET *45 0.026081
*CONN
*P io_oeb[15] O
*I *936:io_oeb[7] O *D wfg_top
*CAP
1 io_oeb[15] 0.00029378
2 *936:io_oeb[7] 0.00263636
3 *45:15 0.0066076
4 *45:14 0.00895018
5 *44:8 *45:14 0.00759306
*RES
1 *936:io_oeb[7] *45:14 37.395 
2 *45:14 *45:15 48.51 
3 *45:15 io_oeb[15] 3.015 
*END

*D_NET *46 0.0632816
*CONN
*P io_oeb[16] O
*I *936:io_oeb[8] O *D wfg_top
*CAP
1 io_oeb[16] 0.00115977
2 *936:io_oeb[8] 0.00175951
3 *46:16 0.00641061
4 *46:10 0.0110101
5 *46:9 0.00751874
6 *46:10 *48:10 0.0351631
7 *46:16 *84:14 0.000259839
*RES
1 *936:io_oeb[8] *46:9 16.515 
2 *46:9 *46:10 87.93 
3 *46:10 *46:16 48.96 
4 *46:16 io_oeb[16] 13.365 
*END

*D_NET *47 0.0720103
*CONN
*P io_oeb[17] O
*I *936:io_oeb[9] O *D wfg_top
*CAP
1 io_oeb[17] 0.00141405
2 *936:io_oeb[9] 0.00135089
3 *47:15 0.00669166
4 *47:10 0.0296691
5 *47:9 0.0257424
6 io_oeb[17] *84:13 0.000240561
7 io_oeb[17] *84:14 0.000490789
8 *47:15 *85:16 0
9 *44:8 *47:10 0.00641078
*RES
1 *936:io_oeb[9] *47:9 13.815 
2 *47:9 *47:10 198.63 
3 *47:10 *47:15 49.05 
4 *47:15 io_oeb[17] 17.235 
*END

*D_NET *48 0.143399
*CONN
*P io_oeb[18] O
*I *936:io_oeb[10] O *D wfg_top
*CAP
1 io_oeb[18] 0.00620797
2 *936:io_oeb[10] 0.00175053
3 *48:12 0.00620797
4 *48:10 0.029954
5 *48:9 0.0317046
6 *48:10 *86:10 0.0324111
7 *46:10 *48:10 0.0351631
*RES
1 *936:io_oeb[10] *48:9 16.695 
2 *48:9 *48:10 315.99 
3 *48:10 *48:12 4.5 
4 *48:12 io_oeb[18] 48.645 
*END

*D_NET *75 0.13715
*CONN
*P io_oeb[8] O
*I *936:io_oeb[0] O *D wfg_top
*CAP
1 io_oeb[8] 0.000275016
2 *936:io_oeb[0] 0
3 *75:11 0.0113459
4 *75:10 0.0110709
5 *75:8 0.0438262
6 *75:7 0.0438262
7 *75:5 0.0038851
8 *75:4 0.0038851
9 *75:5 *80:5 0.00531164
10 *43:5 *75:5 0.0137234
*RES
1 *936:io_oeb[0] *75:4 4.5 
2 *75:4 *75:5 61.83 
3 *75:5 *75:7 4.5 
4 *75:7 *75:8 338.13 
5 *75:8 *75:10 4.5 
6 *75:10 *75:11 86.67 
7 *75:11 io_oeb[8] 3.015 
*END

*D_NET *76 0.122569
*CONN
*P io_oeb[9] O
*I *936:io_oeb[1] O *D wfg_top
*CAP
1 io_oeb[9] 0.000145669
2 *936:io_oeb[1] 0.000355432
3 *76:14 0.0104514
4 *76:13 0.0103057
5 *76:11 0.03582
6 *76:10 0.03582
7 *76:8 0.00438101
8 *76:7 0.00473644
9 *76:8 *79:8 0.000644084
10 *40:8 *76:8 0.00202994
11 *42:8 *76:8 0.0178795
*RES
1 *936:io_oeb[1] *76:7 7.065 
2 *76:7 *76:8 61.65 
3 *76:8 *76:10 4.5 
4 *76:10 *76:11 276.03 
5 *76:11 *76:13 4.5 
6 *76:13 *76:14 81.27 
7 *76:14 io_oeb[9] 1.935 
*END

*D_NET *78 0.210485
*CONN
*P io_out[10] O
*I *936:wfg_drive_spi_sdo_o O *D wfg_top
*CAP
1 io_out[10] 0.00459034
2 *936:wfg_drive_spi_sdo_o 0
3 *78:13 0.00958434
4 *78:8 0.0347398
5 *78:7 0.0297458
6 *78:5 0.0162775
7 *78:4 0.0162775
8 *78:5 *80:5 0.0992694
*RES
1 *936:wfg_drive_spi_sdo_o *78:4 4.5 
2 *78:4 *78:5 256.77 
3 *78:5 *78:7 4.5 
4 *78:7 *78:8 229.59 
5 *78:8 *78:13 44.01 
6 *78:13 io_out[10] 36.675 
*END
