*SPEF "ieee 1481-1999"
*DESIGN "wb_memory"
*DATE "11:11:11 Fri 11 11, 1111"
*VENDOR "OpenRCX"
*PROGRAM "Parallel Extraction"
*VERSION "1.0"
*DESIGN_FLOW "NAME_SCOPE LOCAL" "PIN_CAP NONE"
*DIVIDER /
*DELIMITER :
*BUS_DELIMITER []
*T_UNIT 1 NS
*C_UNIT 1 PF
*R_UNIT 1 OHM
*L_UNIT 1 HENRY

*NAME_MAP
*1 addr_mem0[0]
*2 addr_mem0[1]
*3 addr_mem0[2]
*4 addr_mem0[3]
*5 addr_mem0[4]
*6 addr_mem0[5]
*7 addr_mem0[6]
*8 addr_mem0[7]
*9 addr_mem0[8]
*10 addr_mem1[0]
*11 addr_mem1[1]
*12 addr_mem1[2]
*13 addr_mem1[3]
*14 addr_mem1[4]
*15 addr_mem1[5]
*16 addr_mem1[6]
*17 addr_mem1[7]
*18 addr_mem1[8]
*19 net240
*20 net241
*21 din_mem0[0]
*22 din_mem0[10]
*23 din_mem0[11]
*24 din_mem0[12]
*25 din_mem0[13]
*26 din_mem0[14]
*27 din_mem0[15]
*28 din_mem0[16]
*29 din_mem0[17]
*30 din_mem0[18]
*31 din_mem0[19]
*32 din_mem0[1]
*33 din_mem0[20]
*34 din_mem0[21]
*35 din_mem0[22]
*36 din_mem0[23]
*37 din_mem0[24]
*38 din_mem0[25]
*39 din_mem0[26]
*40 din_mem0[27]
*41 din_mem0[28]
*42 din_mem0[29]
*43 din_mem0[2]
*44 din_mem0[30]
*45 din_mem0[31]
*46 din_mem0[3]
*47 din_mem0[4]
*48 din_mem0[5]
*49 din_mem0[6]
*50 din_mem0[7]
*51 din_mem0[8]
*52 din_mem0[9]
*53 din_mem1[0]
*54 din_mem1[10]
*55 din_mem1[11]
*56 din_mem1[12]
*57 din_mem1[13]
*58 din_mem1[14]
*59 din_mem1[15]
*60 din_mem1[16]
*61 din_mem1[17]
*62 din_mem1[18]
*63 din_mem1[19]
*64 din_mem1[1]
*65 din_mem1[20]
*66 din_mem1[21]
*67 din_mem1[22]
*68 din_mem1[23]
*69 din_mem1[24]
*70 din_mem1[25]
*71 din_mem1[26]
*72 din_mem1[27]
*73 din_mem1[28]
*74 din_mem1[29]
*75 din_mem1[2]
*76 din_mem1[30]
*77 din_mem1[31]
*78 din_mem1[3]
*79 din_mem1[4]
*80 din_mem1[5]
*81 din_mem1[6]
*82 din_mem1[7]
*83 din_mem1[8]
*84 din_mem1[9]
*85 dout_mem0[0]
*86 dout_mem0[10]
*87 dout_mem0[11]
*88 dout_mem0[12]
*89 dout_mem0[13]
*90 dout_mem0[14]
*91 dout_mem0[15]
*92 dout_mem0[16]
*93 dout_mem0[17]
*94 dout_mem0[18]
*95 dout_mem0[19]
*96 dout_mem0[1]
*97 dout_mem0[20]
*98 dout_mem0[21]
*99 dout_mem0[22]
*100 dout_mem0[23]
*101 dout_mem0[24]
*102 dout_mem0[25]
*103 dout_mem0[26]
*104 dout_mem0[27]
*105 dout_mem0[28]
*106 dout_mem0[29]
*107 dout_mem0[2]
*108 dout_mem0[30]
*109 dout_mem0[31]
*110 dout_mem0[3]
*111 dout_mem0[4]
*112 dout_mem0[5]
*113 dout_mem0[6]
*114 dout_mem0[7]
*115 dout_mem0[8]
*116 dout_mem0[9]
*117 dout_mem1[0]
*118 dout_mem1[10]
*119 dout_mem1[11]
*120 dout_mem1[12]
*121 dout_mem1[13]
*122 dout_mem1[14]
*123 dout_mem1[15]
*124 dout_mem1[16]
*125 dout_mem1[17]
*126 dout_mem1[18]
*127 dout_mem1[19]
*128 dout_mem1[1]
*129 dout_mem1[20]
*130 dout_mem1[21]
*131 dout_mem1[22]
*132 dout_mem1[23]
*133 dout_mem1[24]
*134 dout_mem1[25]
*135 dout_mem1[26]
*136 dout_mem1[27]
*137 dout_mem1[28]
*138 dout_mem1[29]
*139 dout_mem1[2]
*140 dout_mem1[30]
*141 dout_mem1[31]
*142 dout_mem1[3]
*143 dout_mem1[4]
*144 dout_mem1[5]
*145 dout_mem1[6]
*146 dout_mem1[7]
*147 dout_mem1[8]
*148 dout_mem1[9]
*149 io_wbs_ack
*150 io_wbs_adr[0]
*151 io_wbs_adr[10]
*152 io_wbs_adr[11]
*153 io_wbs_adr[12]
*154 io_wbs_adr[13]
*155 io_wbs_adr[14]
*156 io_wbs_adr[15]
*157 io_wbs_adr[16]
*158 io_wbs_adr[17]
*159 io_wbs_adr[18]
*160 io_wbs_adr[19]
*161 io_wbs_adr[1]
*162 io_wbs_adr[20]
*163 io_wbs_adr[21]
*164 io_wbs_adr[22]
*165 io_wbs_adr[23]
*166 io_wbs_adr[24]
*167 io_wbs_adr[25]
*168 io_wbs_adr[26]
*169 io_wbs_adr[27]
*170 io_wbs_adr[28]
*171 io_wbs_adr[29]
*172 io_wbs_adr[2]
*173 io_wbs_adr[30]
*174 io_wbs_adr[31]
*175 io_wbs_adr[3]
*176 io_wbs_adr[4]
*177 io_wbs_adr[5]
*178 io_wbs_adr[6]
*179 io_wbs_adr[7]
*180 io_wbs_adr[8]
*181 io_wbs_adr[9]
*182 io_wbs_clk
*183 io_wbs_cyc
*184 io_wbs_datrd[0]
*185 io_wbs_datrd[10]
*186 io_wbs_datrd[11]
*187 io_wbs_datrd[12]
*188 io_wbs_datrd[13]
*189 io_wbs_datrd[14]
*190 io_wbs_datrd[15]
*191 io_wbs_datrd[16]
*192 io_wbs_datrd[17]
*193 io_wbs_datrd[18]
*194 io_wbs_datrd[19]
*195 io_wbs_datrd[1]
*196 io_wbs_datrd[20]
*197 io_wbs_datrd[21]
*198 io_wbs_datrd[22]
*199 io_wbs_datrd[23]
*200 io_wbs_datrd[24]
*201 io_wbs_datrd[25]
*202 io_wbs_datrd[26]
*203 io_wbs_datrd[27]
*204 io_wbs_datrd[28]
*205 io_wbs_datrd[29]
*206 io_wbs_datrd[2]
*207 io_wbs_datrd[30]
*208 io_wbs_datrd[31]
*209 io_wbs_datrd[3]
*210 io_wbs_datrd[4]
*211 io_wbs_datrd[5]
*212 io_wbs_datrd[6]
*213 io_wbs_datrd[7]
*214 io_wbs_datrd[8]
*215 io_wbs_datrd[9]
*216 io_wbs_datwr[0]
*217 io_wbs_datwr[10]
*218 io_wbs_datwr[11]
*219 io_wbs_datwr[12]
*220 io_wbs_datwr[13]
*221 io_wbs_datwr[14]
*222 io_wbs_datwr[15]
*223 io_wbs_datwr[16]
*224 io_wbs_datwr[17]
*225 io_wbs_datwr[18]
*226 io_wbs_datwr[19]
*227 io_wbs_datwr[1]
*228 io_wbs_datwr[20]
*229 io_wbs_datwr[21]
*230 io_wbs_datwr[22]
*231 io_wbs_datwr[23]
*232 io_wbs_datwr[24]
*233 io_wbs_datwr[25]
*234 io_wbs_datwr[26]
*235 io_wbs_datwr[27]
*236 io_wbs_datwr[28]
*237 io_wbs_datwr[29]
*238 io_wbs_datwr[2]
*239 io_wbs_datwr[30]
*240 io_wbs_datwr[31]
*241 io_wbs_datwr[3]
*242 io_wbs_datwr[4]
*243 io_wbs_datwr[5]
*244 io_wbs_datwr[6]
*245 io_wbs_datwr[7]
*246 io_wbs_datwr[8]
*247 io_wbs_datwr[9]
*248 io_wbs_rst
*249 io_wbs_sel[0]
*250 io_wbs_sel[1]
*251 io_wbs_sel[2]
*252 io_wbs_sel[3]
*253 io_wbs_stb
*254 io_wbs_we
*257 web_mem0
*258 web_mem1
*259 wmask_mem0[0]
*260 wmask_mem0[1]
*261 wmask_mem0[2]
*262 wmask_mem0[3]
*263 wmask_mem1[0]
*264 wmask_mem1[1]
*265 wmask_mem1[2]
*266 wmask_mem1[3]
*267 _000_
*268 _001_
*269 _002_
*270 _003_
*271 _004_
*272 _005_
*273 _006_
*274 _007_
*275 _008_
*276 _009_
*277 _010_
*278 _011_
*279 _012_
*280 _013_
*281 _014_
*282 _015_
*283 _016_
*284 _017_
*285 _018_
*286 _019_
*287 _020_
*288 _021_
*289 _022_
*290 _023_
*291 _024_
*292 _025_
*293 _026_
*294 _027_
*295 _028_
*296 _029_
*297 _030_
*298 _031_
*299 _032_
*300 _033_
*301 _034_
*302 _035_
*303 _036_
*304 _037_
*305 _038_
*306 _039_
*307 _040_
*308 _041_
*309 _042_
*310 _043_
*311 _044_
*312 _045_
*313 _046_
*314 _047_
*315 _048_
*316 _049_
*317 _050_
*318 _051_
*319 _052_
*320 _053_
*321 _054_
*322 _055_
*323 _056_
*324 _057_
*325 _058_
*326 _059_
*327 _060_
*328 _061_
*329 _062_
*330 _063_
*331 _064_
*332 _065_
*333 _066_
*334 _067_
*335 _068_
*336 _069_
*337 _070_
*338 _071_
*339 _072_
*340 _073_
*341 _074_
*342 _075_
*343 _076_
*344 _077_
*345 _078_
*346 _079_
*347 _080_
*348 _081_
*349 _082_
*350 _083_
*351 _084_
*352 _085_
*353 _086_
*354 _087_
*355 _088_
*356 _089_
*357 _090_
*358 _091_
*359 _092_
*360 _093_
*361 _094_
*362 _095_
*363 _096_
*364 _097_
*365 _098_
*366 _099_
*367 _100_
*368 _101_
*369 _102_
*370 _103_
*371 _104_
*372 _105_
*373 _106_
*374 _107_
*375 _108_
*376 _109_
*377 _110_
*378 _111_
*379 _112_
*380 _113_
*381 _114_
*382 _115_
*383 _116_
*384 _117_
*385 _118_
*386 _119_
*387 _120_
*388 _121_
*389 _122_
*390 _123_
*391 _124_
*392 _125_
*393 _126_
*394 _127_
*395 _128_
*396 _129_
*397 _130_
*398 _131_
*399 _132_
*400 _133_
*401 _134_
*402 _135_
*403 _136_
*404 _137_
*405 _138_
*406 _139_
*407 _140_
*408 _141_
*409 _142_
*410 _143_
*411 _144_
*412 _145_
*413 _146_
*414 _147_
*415 _148_
*416 _149_
*417 _150_
*418 _151_
*419 _152_
*420 _153_
*421 _154_
*422 _155_
*423 _156_
*424 _157_
*425 _158_
*426 _159_
*427 _160_
*428 _161_
*429 _162_
*430 _163_
*431 _164_
*432 _165_
*433 _166_
*434 _167_
*435 clknet_0_io_wbs_clk
*436 clknet_2_0__leaf_io_wbs_clk
*437 clknet_2_1__leaf_io_wbs_clk
*438 clknet_2_2__leaf_io_wbs_clk
*439 clknet_2_3__leaf_io_wbs_clk
*440 net1
*441 net10
*442 net100
*443 net101
*444 net102
*445 net103
*446 net104
*447 net105
*448 net106
*449 net107
*450 net108
*451 net109
*452 net11
*453 net110
*454 net111
*455 net112
*456 net113
*457 net114
*458 net115
*459 net116
*460 net117
*461 net118
*462 net119
*463 net12
*464 net120
*465 net121
*466 net122
*467 net123
*468 net124
*469 net125
*470 net126
*471 net127
*472 net128
*473 net129
*474 net13
*475 net130
*476 net131
*477 net132
*478 net133
*479 net134
*480 net135
*481 net136
*482 net137
*483 net138
*484 net139
*485 net14
*486 net140
*487 net141
*488 net142
*489 net143
*490 net144
*491 net145
*492 net146
*493 net147
*494 net148
*495 net149
*496 net15
*497 net150
*498 net151
*499 net152
*500 net153
*501 net154
*502 net155
*503 net156
*504 net157
*505 net158
*506 net159
*507 net16
*508 net160
*509 net161
*510 net162
*511 net163
*512 net164
*513 net165
*514 net166
*515 net167
*516 net168
*517 net169
*518 net17
*519 net170
*520 net171
*521 net172
*522 net173
*523 net174
*524 net175
*525 net176
*526 net177
*527 net178
*528 net179
*529 net18
*530 net180
*531 net181
*532 net182
*533 net183
*534 net184
*535 net185
*536 net186
*537 net187
*538 net188
*539 net189
*540 net19
*541 net190
*542 net191
*543 net192
*544 net193
*545 net194
*546 net195
*547 net196
*548 net197
*549 net198
*550 net199
*551 net2
*552 net20
*553 net200
*554 net201
*555 net202
*556 net203
*557 net204
*558 net205
*559 net206
*560 net207
*561 net208
*562 net209
*563 net21
*564 net210
*565 net211
*566 net212
*567 net213
*568 net214
*569 net215
*570 net216
*571 net217
*572 net218
*573 net219
*574 net22
*575 net220
*576 net221
*577 net222
*578 net223
*579 net224
*580 net225
*581 net226
*582 net227
*583 net228
*584 net229
*585 net23
*586 net230
*587 net231
*588 net232
*589 net233
*590 net234
*591 net235
*592 net236
*593 net237
*594 net238
*595 net239
*596 net24
*597 net25
*598 net26
*599 net27
*600 net28
*601 net29
*602 net3
*603 net30
*604 net31
*605 net32
*606 net33
*607 net34
*608 net35
*609 net36
*610 net37
*611 net38
*612 net39
*613 net4
*614 net40
*615 net41
*616 net42
*617 net43
*618 net44
*619 net45
*620 net46
*621 net47
*622 net48
*623 net49
*624 net5
*625 net50
*626 net51
*627 net52
*628 net53
*629 net54
*630 net55
*631 net56
*632 net57
*633 net58
*634 net59
*635 net6
*636 net60
*637 net61
*638 net62
*639 net63
*640 net64
*641 net65
*642 net66
*643 net67
*644 net68
*645 net69
*646 net7
*647 net70
*648 net71
*649 net72
*650 net73
*651 net74
*652 net75
*653 net76
*654 net77
*655 net78
*656 net79
*657 net8
*658 net80
*659 net81
*660 net82
*661 net83
*662 net84
*663 net85
*664 net86
*665 net87
*666 net88
*667 net89
*668 net9
*669 net90
*670 net91
*671 net92
*672 net93
*673 net94
*674 net95
*675 net96
*676 net97
*677 net98
*678 net99
*679 operation
*680 web_mem
*681 ANTENNA__168__I
*682 ANTENNA__169__I1
*683 ANTENNA__169__S
*684 ANTENNA__170__I
*685 ANTENNA__171__I
*686 ANTENNA__172__I0
*687 ANTENNA__172__I1
*688 ANTENNA__172__S
*689 ANTENNA__174__I1
*690 ANTENNA__174__S
*691 ANTENNA__175__I0
*692 ANTENNA__175__I1
*693 ANTENNA__175__S
*694 ANTENNA__177__I
*695 ANTENNA__178__I
*696 ANTENNA__179__I0
*697 ANTENNA__179__S
*698 ANTENNA__180__I0
*699 ANTENNA__180__I1
*700 ANTENNA__180__S
*701 ANTENNA__182__I0
*702 ANTENNA__182__S
*703 ANTENNA__183__I0
*704 ANTENNA__183__I1
*705 ANTENNA__183__S
*706 ANTENNA__185__I0
*707 ANTENNA__185__S
*708 ANTENNA__186__I
*709 ANTENNA__187__I0
*710 ANTENNA__187__I1
*711 ANTENNA__187__S
*712 ANTENNA__189__I0
*713 ANTENNA__189__S
*714 ANTENNA__190__I0
*715 ANTENNA__190__I1
*716 ANTENNA__190__S
*717 ANTENNA__192__I
*718 ANTENNA__193__I0
*719 ANTENNA__194__I0
*720 ANTENNA__194__I1
*721 ANTENNA__194__S
*722 ANTENNA__196__I0
*723 ANTENNA__197__I0
*724 ANTENNA__197__I1
*725 ANTENNA__197__S
*726 ANTENNA__199__I0
*727 ANTENNA__199__I1
*728 ANTENNA__200__I
*729 ANTENNA__201__I1
*730 ANTENNA__201__S
*731 ANTENNA__203__I0
*732 ANTENNA__203__I1
*733 ANTENNA__204__I0
*734 ANTENNA__204__I1
*735 ANTENNA__204__S
*736 ANTENNA__206__I
*737 ANTENNA__207__I
*738 ANTENNA__208__I0
*739 ANTENNA__208__I1
*740 ANTENNA__208__S
*741 ANTENNA__209__I1
*742 ANTENNA__209__S
*743 ANTENNA__211__I0
*744 ANTENNA__211__I1
*745 ANTENNA__211__S
*746 ANTENNA__212__I0
*747 ANTENNA__212__I1
*748 ANTENNA__212__S
*749 ANTENNA__214__I0
*750 ANTENNA__214__I1
*751 ANTENNA__214__S
*752 ANTENNA__215__I
*753 ANTENNA__216__I
*754 ANTENNA__217__I0
*755 ANTENNA__217__I1
*756 ANTENNA__217__S
*757 ANTENNA__219__I0
*758 ANTENNA__219__I1
*759 ANTENNA__219__S
*760 ANTENNA__220__I0
*761 ANTENNA__220__I1
*762 ANTENNA__220__S
*763 ANTENNA__222__I
*764 ANTENNA__223__I0
*765 ANTENNA__223__I1
*766 ANTENNA__224__I0
*767 ANTENNA__224__I1
*768 ANTENNA__224__S
*769 ANTENNA__226__I0
*770 ANTENNA__226__I1
*771 ANTENNA__227__I0
*772 ANTENNA__227__I1
*773 ANTENNA__227__S
*774 ANTENNA__229__I0
*775 ANTENNA__229__I1
*776 ANTENNA__230__I
*777 ANTENNA__231__I0
*778 ANTENNA__231__I1
*779 ANTENNA__231__S
*780 ANTENNA__233__I0
*781 ANTENNA__233__I1
*782 ANTENNA__234__I0
*783 ANTENNA__234__I1
*784 ANTENNA__234__S
*785 ANTENNA__236__I
*786 ANTENNA__237__I0
*787 ANTENNA__237__I1
*788 ANTENNA__237__S
*789 ANTENNA__238__I0
*790 ANTENNA__238__I1
*791 ANTENNA__238__S
*792 ANTENNA__240__I0
*793 ANTENNA__240__I1
*794 ANTENNA__240__S
*795 ANTENNA__241__I0
*796 ANTENNA__241__I1
*797 ANTENNA__241__S
*798 ANTENNA__243__I0
*799 ANTENNA__243__I1
*800 ANTENNA__243__S
*801 ANTENNA__244__I
*802 ANTENNA__245__I1
*803 ANTENNA__247__I0
*804 ANTENNA__247__I1
*805 ANTENNA__247__S
*806 ANTENNA__248__I1
*807 ANTENNA__250__I
*808 ANTENNA__251__I0
*809 ANTENNA__251__I1
*810 ANTENNA__251__S
*811 ANTENNA__252__I0
*812 ANTENNA__252__I1
*813 ANTENNA__254__I0
*814 ANTENNA__254__I1
*815 ANTENNA__254__S
*816 ANTENNA__255__I0
*817 ANTENNA__255__I1
*818 ANTENNA__257__I0
*819 ANTENNA__257__I1
*820 ANTENNA__257__S
*821 ANTENNA__258__I
*822 ANTENNA__259__I0
*823 ANTENNA__259__I1
*824 ANTENNA__259__S
*825 ANTENNA__261__I0
*826 ANTENNA__261__I1
*827 ANTENNA__261__S
*828 ANTENNA__262__I0
*829 ANTENNA__262__I1
*830 ANTENNA__262__S
*831 ANTENNA__264__I
*832 ANTENNA__265__I0
*833 ANTENNA__265__I1
*834 ANTENNA__265__S
*835 ANTENNA__266__I1
*836 ANTENNA__266__S
*837 ANTENNA__268__I0
*838 ANTENNA__268__I1
*839 ANTENNA__268__S
*840 ANTENNA__269__I0
*841 ANTENNA__269__I1
*842 ANTENNA__269__S
*843 ANTENNA__271__I0
*844 ANTENNA__271__I1
*845 ANTENNA__271__S
*846 ANTENNA__272__I
*847 ANTENNA__273__I1
*848 ANTENNA__273__S
*849 ANTENNA__275__I0
*850 ANTENNA__275__I1
*851 ANTENNA__275__S
*852 ANTENNA__276__I1
*853 ANTENNA__276__S
*854 ANTENNA__278__I1
*855 ANTENNA__278__S
*856 ANTENNA__279__I1
*857 ANTENNA__279__S
*858 ANTENNA__281__I0
*859 ANTENNA__281__I1
*860 ANTENNA__281__S
*861 ANTENNA__282__I1
*862 ANTENNA__282__S
*863 ANTENNA__284__A1
*864 ANTENNA__284__A2
*865 ANTENNA__285__A3
*866 ANTENNA__287__A4
*867 ANTENNA__288__I
*868 ANTENNA__289__A2
*869 ANTENNA__290__A1
*870 ANTENNA__290__A2
*871 ANTENNA__292__I
*872 ANTENNA__293__I
*873 ANTENNA__294__I
*874 ANTENNA__295__I
*875 ANTENNA__296__I
*876 ANTENNA__297__I
*877 ANTENNA__298__I
*878 ANTENNA__299__I
*879 ANTENNA__300__I
*880 ANTENNA__301__I
*881 ANTENNA__302__I
*882 ANTENNA__303__I
*883 ANTENNA__304__I
*884 ANTENNA__305__I
*885 ANTENNA__306__I
*886 ANTENNA__307__I
*887 ANTENNA__308__I
*888 ANTENNA__309__I
*889 ANTENNA__310__I
*890 ANTENNA__311__I
*891 ANTENNA__312__I
*892 ANTENNA__313__I
*893 ANTENNA__314__I
*894 ANTENNA__315__I
*895 ANTENNA__316__I
*896 ANTENNA__317__I
*897 ANTENNA__318__I
*898 ANTENNA__319__I
*899 ANTENNA__320__I
*900 ANTENNA__321__I
*901 ANTENNA__322__I
*902 ANTENNA__323__I
*903 ANTENNA__324__I
*904 ANTENNA__325__I
*905 ANTENNA__330__I
*906 ANTENNA__335__I
*907 ANTENNA__336__I
*908 ANTENNA__337__I
*909 ANTENNA__338__CLK
*910 ANTENNA__339__CLK
*911 ANTENNA__340__CLK
*912 ANTENNA__341__CLK
*913 ANTENNA__342__CLK
*914 ANTENNA__343__CLK
*915 ANTENNA__344__CLK
*916 ANTENNA__345__CLK
*917 ANTENNA__346__CLK
*918 ANTENNA__347__CLK
*919 ANTENNA__348__CLK
*920 ANTENNA__349__CLK
*921 ANTENNA__350__CLK
*922 ANTENNA__351__CLK
*923 ANTENNA__352__CLK
*924 ANTENNA__353__CLK
*925 ANTENNA__354__CLK
*926 ANTENNA__355__CLK
*927 ANTENNA__356__CLK
*928 ANTENNA__357__CLK
*929 ANTENNA__358__CLK
*930 ANTENNA__359__CLK
*931 ANTENNA__360__CLK
*932 ANTENNA__361__CLK
*933 ANTENNA__362__CLK
*934 ANTENNA__363__CLK
*935 ANTENNA__364__CLK
*936 ANTENNA__365__CLK
*937 ANTENNA__365__D
*938 ANTENNA__366__CLK
*939 ANTENNA__366__D
*940 ANTENNA__367__CLK
*941 ANTENNA__367__D
*942 ANTENNA__368__CLK
*943 ANTENNA__369__CLK
*944 ANTENNA__370__CLK
*945 ANTENNA__370__D
*946 ANTENNA__371__CLK
*947 ANTENNA__372__CLK
*948 ANTENNA__375__I
*949 ANTENNA__376__I
*950 ANTENNA__377__I
*951 ANTENNA__378__I
*952 ANTENNA__379__I
*953 ANTENNA__380__I
*954 ANTENNA__381__I
*955 ANTENNA__382__I
*956 ANTENNA__383__I
*957 ANTENNA__384__I
*958 ANTENNA__385__I
*959 ANTENNA__386__I
*960 ANTENNA__387__I
*961 ANTENNA__388__I
*962 ANTENNA__389__I
*963 ANTENNA__390__I
*964 ANTENNA__391__I
*965 ANTENNA__392__I
*966 ANTENNA__393__I
*967 ANTENNA__394__I
*968 ANTENNA__395__I
*969 ANTENNA__396__I
*970 ANTENNA__397__I
*971 ANTENNA__398__I
*972 ANTENNA__399__I
*973 ANTENNA__400__I
*974 ANTENNA__401__I
*975 ANTENNA__402__I
*976 ANTENNA__403__I
*977 ANTENNA__404__I
*978 ANTENNA__405__I
*979 ANTENNA__406__I
*980 ANTENNA__407__I
*981 ANTENNA__408__I
*982 ANTENNA__409__I
*983 ANTENNA__410__I
*984 ANTENNA__411__I
*985 ANTENNA__412__I
*986 ANTENNA__413__I
*987 ANTENNA__414__I
*988 ANTENNA__415__I
*989 ANTENNA__416__I
*990 ANTENNA__417__I
*991 ANTENNA__418__I
*992 ANTENNA__419__I
*993 ANTENNA__420__I
*994 ANTENNA__421__I
*995 ANTENNA__422__I
*996 ANTENNA__423__I
*997 ANTENNA__424__I
*998 ANTENNA__425__I
*999 ANTENNA__426__I
*1000 ANTENNA__427__I
*1001 ANTENNA__428__I
*1002 ANTENNA__429__I
*1003 ANTENNA__430__I
*1004 ANTENNA__431__I
*1005 ANTENNA__432__I
*1006 ANTENNA__433__I
*1007 ANTENNA__434__I
*1008 ANTENNA__435__I
*1009 ANTENNA__436__I
*1010 ANTENNA__437__I
*1011 ANTENNA__438__I
*1012 ANTENNA__439__I
*1013 ANTENNA__440__I
*1014 ANTENNA__441__I
*1015 ANTENNA__442__I
*1016 ANTENNA__443__I
*1017 ANTENNA__444__I
*1018 ANTENNA__445__I
*1019 ANTENNA__446__I
*1020 ANTENNA__447__I
*1021 ANTENNA__448__I
*1022 ANTENNA__449__I
*1023 ANTENNA__450__I
*1024 ANTENNA__451__I
*1025 ANTENNA__452__I
*1026 ANTENNA__453__I
*1027 ANTENNA__454__I
*1028 ANTENNA__455__I
*1029 ANTENNA__456__I
*1030 ANTENNA__457__I
*1031 ANTENNA__458__I
*1032 ANTENNA__459__I
*1033 ANTENNA__460__I
*1034 ANTENNA__461__I
*1035 ANTENNA__462__I
*1036 ANTENNA__463__I
*1037 ANTENNA__464__I
*1038 ANTENNA_clkbuf_0_io_wbs_clk_I
*1039 ANTENNA_clkbuf_2_0__f_io_wbs_clk_I
*1040 ANTENNA_clkbuf_2_1__f_io_wbs_clk_I
*1041 ANTENNA_clkbuf_2_2__f_io_wbs_clk_I
*1042 ANTENNA_clkbuf_2_3__f_io_wbs_clk_I
*1043 ANTENNA_input100_I
*1044 ANTENNA_input101_I
*1045 ANTENNA_input102_I
*1046 ANTENNA_input103_I
*1047 ANTENNA_input104_I
*1048 ANTENNA_input105_I
*1049 ANTENNA_input106_I
*1050 ANTENNA_input107_I
*1051 ANTENNA_input108_I
*1052 ANTENNA_input109_I
*1053 ANTENNA_input10_I
*1054 ANTENNA_input110_I
*1055 ANTENNA_input111_I
*1056 ANTENNA_input112_I
*1057 ANTENNA_input113_I
*1058 ANTENNA_input114_I
*1059 ANTENNA_input11_I
*1060 ANTENNA_input12_I
*1061 ANTENNA_input13_I
*1062 ANTENNA_input14_I
*1063 ANTENNA_input15_I
*1064 ANTENNA_input16_I
*1065 ANTENNA_input17_I
*1066 ANTENNA_input18_I
*1067 ANTENNA_input19_I
*1068 ANTENNA_input1_I
*1069 ANTENNA_input20_I
*1070 ANTENNA_input21_I
*1071 ANTENNA_input22_I
*1072 ANTENNA_input23_I
*1073 ANTENNA_input24_I
*1074 ANTENNA_input25_I
*1075 ANTENNA_input26_I
*1076 ANTENNA_input27_I
*1077 ANTENNA_input28_I
*1078 ANTENNA_input29_I
*1079 ANTENNA_input2_I
*1080 ANTENNA_input30_I
*1081 ANTENNA_input31_I
*1082 ANTENNA_input32_I
*1083 ANTENNA_input33_I
*1084 ANTENNA_input34_I
*1085 ANTENNA_input35_I
*1086 ANTENNA_input36_I
*1087 ANTENNA_input37_I
*1088 ANTENNA_input38_I
*1089 ANTENNA_input39_I
*1090 ANTENNA_input3_I
*1091 ANTENNA_input40_I
*1092 ANTENNA_input41_I
*1093 ANTENNA_input42_I
*1094 ANTENNA_input43_I
*1095 ANTENNA_input44_I
*1096 ANTENNA_input45_I
*1097 ANTENNA_input46_I
*1098 ANTENNA_input47_I
*1099 ANTENNA_input48_I
*1100 ANTENNA_input49_I
*1101 ANTENNA_input4_I
*1102 ANTENNA_input50_I
*1103 ANTENNA_input51_I
*1104 ANTENNA_input52_I
*1105 ANTENNA_input53_I
*1106 ANTENNA_input54_I
*1107 ANTENNA_input55_I
*1108 ANTENNA_input56_I
*1109 ANTENNA_input57_I
*1110 ANTENNA_input58_I
*1111 ANTENNA_input59_I
*1112 ANTENNA_input5_I
*1113 ANTENNA_input60_I
*1114 ANTENNA_input61_I
*1115 ANTENNA_input62_I
*1116 ANTENNA_input63_I
*1117 ANTENNA_input64_I
*1118 ANTENNA_input65_I
*1119 ANTENNA_input66_I
*1120 ANTENNA_input67_I
*1121 ANTENNA_input68_I
*1122 ANTENNA_input69_I
*1123 ANTENNA_input6_I
*1124 ANTENNA_input70_I
*1125 ANTENNA_input71_I
*1126 ANTENNA_input72_I
*1127 ANTENNA_input73_I
*1128 ANTENNA_input74_I
*1129 ANTENNA_input75_I
*1130 ANTENNA_input76_I
*1131 ANTENNA_input77_I
*1132 ANTENNA_input78_I
*1133 ANTENNA_input79_I
*1134 ANTENNA_input7_I
*1135 ANTENNA_input80_I
*1136 ANTENNA_input81_I
*1137 ANTENNA_input82_I
*1138 ANTENNA_input83_I
*1139 ANTENNA_input84_I
*1140 ANTENNA_input85_I
*1141 ANTENNA_input86_I
*1142 ANTENNA_input87_I
*1143 ANTENNA_input88_I
*1144 ANTENNA_input89_I
*1145 ANTENNA_input8_I
*1146 ANTENNA_input90_I
*1147 ANTENNA_input91_I
*1148 ANTENNA_input92_I
*1149 ANTENNA_input93_I
*1150 ANTENNA_input94_I
*1151 ANTENNA_input95_I
*1152 ANTENNA_input96_I
*1153 ANTENNA_input97_I
*1154 ANTENNA_input98_I
*1155 ANTENNA_input99_I
*1156 ANTENNA_input9_I
*1157 ANTENNA_output125_I
*1158 ANTENNA_output126_I
*1159 ANTENNA_output127_I
*1160 ANTENNA_output128_I
*1161 ANTENNA_output129_I
*1162 ANTENNA_output130_I
*1163 ANTENNA_output131_I
*1164 ANTENNA_output132_I
*1165 ANTENNA_output138_I
*1166 ANTENNA_output145_I
*1167 ANTENNA_output146_I
*1168 ANTENNA_output147_I
*1169 ANTENNA_output148_I
*1170 ANTENNA_output149_I
*1171 ANTENNA_output150_I
*1172 ANTENNA_output151_I
*1173 ANTENNA_output152_I
*1174 ANTENNA_output153_I
*1175 ANTENNA_output154_I
*1176 ANTENNA_output157_I
*1177 ANTENNA_output176_I
*1178 ANTENNA_output178_I
*1179 ANTENNA_output180_I
*1180 ANTENNA_output187_I
*1181 ANTENNA_output191_I
*1182 ANTENNA_output192_I
*1183 ANTENNA_output193_I
*1184 ANTENNA_output194_I
*1185 ANTENNA_output195_I
*1186 ANTENNA_output196_I
*1187 ANTENNA_output197_I
*1188 ANTENNA_output201_I
*1189 ANTENNA_output202_I
*1190 ANTENNA_output203_I
*1191 ANTENNA_output204_I
*1192 ANTENNA_output205_I
*1193 ANTENNA_output206_I
*1194 ANTENNA_output207_I
*1195 ANTENNA_output208_I
*1196 ANTENNA_output210_I
*1197 ANTENNA_output212_I
*1198 ANTENNA_output214_I
*1199 ANTENNA_output215_I
*1200 ANTENNA_output216_I
*1201 ANTENNA_output217_I
*1202 ANTENNA_output218_I
*1203 ANTENNA_output219_I
*1204 ANTENNA_output221_I
*1205 ANTENNA_output222_I
*1206 ANTENNA_output224_I
*1207 ANTENNA_output226_I
*1208 ANTENNA_output227_I
*1209 ANTENNA_output228_I
*1210 ANTENNA_output229_I
*1211 ANTENNA_output230_I
*1212 ANTENNA_output236_I
*1213 ANTENNA_output237_I
*1214 ANTENNA_output239_I
*1215 FILLER_0_100
*1216 FILLER_0_1002
*1217 FILLER_0_1010
*1218 FILLER_0_1014
*1219 FILLER_0_1017
*1220 FILLER_0_1019
*1221 FILLER_0_1022
*1222 FILLER_0_1038
*1223 FILLER_0_104
*1224 FILLER_0_1046
*1225 FILLER_0_1052
*1226 FILLER_0_1055
*1227 FILLER_0_1059
*1228 FILLER_0_107
*1229 FILLER_0_1074
*1230 FILLER_0_1082
*1231 FILLER_0_1084
*1232 FILLER_0_1087
*1233 FILLER_0_1090
*1234 FILLER_0_1094
*1235 FILLER_0_111
*1236 FILLER_0_1110
*1237 FILLER_0_1118
*1238 FILLER_0_1122
*1239 FILLER_0_1127
*1240 FILLER_0_1131
*1241 FILLER_0_1146
*1242 FILLER_0_1154
*1243 FILLER_0_1157
*1244 FILLER_0_1160
*1245 FILLER_0_1164
*1246 FILLER_0_1182
*1247 FILLER_0_1192
*1248 FILLER_0_1202
*1249 FILLER_0_1218
*1250 FILLER_0_1222
*1251 FILLER_0_1224
*1252 FILLER_0_1227
*1253 FILLER_0_1235
*1254 FILLER_0_1238
*1255 FILLER_0_1254
*1256 FILLER_0_1258
*1257 FILLER_0_126
*1258 FILLER_0_1262
*1259 FILLER_0_1270
*1260 FILLER_0_1274
*1261 FILLER_0_128
*1262 FILLER_0_1290
*1263 FILLER_0_1294
*1264 FILLER_0_1297
*1265 FILLER_0_131
*1266 FILLER_0_139
*1267 FILLER_0_142
*1268 FILLER_0_150
*1269 FILLER_0_158
*1270 FILLER_0_174
*1271 FILLER_0_177
*1272 FILLER_0_181
*1273 FILLER_0_183
*1274 FILLER_0_190
*1275 FILLER_0_194
*1276 FILLER_0_2
*1277 FILLER_0_202
*1278 FILLER_0_212
*1279 FILLER_0_227
*1280 FILLER_0_231
*1281 FILLER_0_238
*1282 FILLER_0_244
*1283 FILLER_0_247
*1284 FILLER_0_254
*1285 FILLER_0_270
*1286 FILLER_0_278
*1287 FILLER_0_282
*1288 FILLER_0_289
*1289 FILLER_0_291
*1290 FILLER_0_298
*1291 FILLER_0_314
*1292 FILLER_0_317
*1293 FILLER_0_324
*1294 FILLER_0_326
*1295 FILLER_0_333
*1296 FILLER_0_34
*1297 FILLER_0_349
*1298 FILLER_0_352
*1299 FILLER_0_359
*1300 FILLER_0_361
*1301 FILLER_0_368
*1302 FILLER_0_37
*1303 FILLER_0_384
*1304 FILLER_0_387
*1305 FILLER_0_394
*1306 FILLER_0_396
*1307 FILLER_0_403
*1308 FILLER_0_41
*1309 FILLER_0_419
*1310 FILLER_0_422
*1311 FILLER_0_430
*1312 FILLER_0_434
*1313 FILLER_0_442
*1314 FILLER_0_446
*1315 FILLER_0_454
*1316 FILLER_0_457
*1317 FILLER_0_459
*1318 FILLER_0_466
*1319 FILLER_0_483
*1320 FILLER_0_489
*1321 FILLER_0_49
*1322 FILLER_0_492
*1323 FILLER_0_507
*1324 FILLER_0_509
*1325 FILLER_0_516
*1326 FILLER_0_524
*1327 FILLER_0_527
*1328 FILLER_0_542
*1329 FILLER_0_550
*1330 FILLER_0_558
*1331 FILLER_0_562
*1332 FILLER_0_57
*1333 FILLER_0_577
*1334 FILLER_0_585
*1335 FILLER_0_593
*1336 FILLER_0_597
*1337 FILLER_0_612
*1338 FILLER_0_616
*1339 FILLER_0_620
*1340 FILLER_0_624
*1341 FILLER_0_626
*1342 FILLER_0_629
*1343 FILLER_0_632
*1344 FILLER_0_647
*1345 FILLER_0_655
*1346 FILLER_0_659
*1347 FILLER_0_661
*1348 FILLER_0_664
*1349 FILLER_0_667
*1350 FILLER_0_682
*1351 FILLER_0_69
*1352 FILLER_0_690
*1353 FILLER_0_694
*1354 FILLER_0_698
*1355 FILLER_0_702
*1356 FILLER_0_717
*1357 FILLER_0_72
*1358 FILLER_0_725
*1359 FILLER_0_729
*1360 FILLER_0_733
*1361 FILLER_0_737
*1362 FILLER_0_752
*1363 FILLER_0_760
*1364 FILLER_0_764
*1365 FILLER_0_768
*1366 FILLER_0_772
*1367 FILLER_0_787
*1368 FILLER_0_795
*1369 FILLER_0_799
*1370 FILLER_0_803
*1371 FILLER_0_807
*1372 FILLER_0_82
*1373 FILLER_0_822
*1374 FILLER_0_830
*1375 FILLER_0_834
*1376 FILLER_0_838
*1377 FILLER_0_842
*1378 FILLER_0_858
*1379 FILLER_0_86
*1380 FILLER_0_866
*1381 FILLER_0_870
*1382 FILLER_0_874
*1383 FILLER_0_877
*1384 FILLER_0_879
*1385 FILLER_0_894
*1386 FILLER_0_902
*1387 FILLER_0_906
*1388 FILLER_0_912
*1389 FILLER_0_930
*1390 FILLER_0_938
*1391 FILLER_0_94
*1392 FILLER_0_942
*1393 FILLER_0_944
*1394 FILLER_0_947
*1395 FILLER_0_966
*1396 FILLER_0_974
*1397 FILLER_0_978
*1398 FILLER_0_982
*1399 FILLER_0_985
*1400 FILLER_0_987
*1401 FILLER_10_101
*1402 FILLER_10_1024
*1403 FILLER_10_1028
*1404 FILLER_10_1031
*1405 FILLER_10_105
*1406 FILLER_10_108
*1407 FILLER_10_1095
*1408 FILLER_10_1099
*1409 FILLER_10_1102
*1410 FILLER_10_1166
*1411 FILLER_10_1170
*1412 FILLER_10_1173
*1413 FILLER_10_1237
*1414 FILLER_10_1241
*1415 FILLER_10_1244
*1416 FILLER_10_1308
*1417 FILLER_10_1312
*1418 FILLER_10_172
*1419 FILLER_10_176
*1420 FILLER_10_179
*1421 FILLER_10_2
*1422 FILLER_10_243
*1423 FILLER_10_247
*1424 FILLER_10_250
*1425 FILLER_10_314
*1426 FILLER_10_318
*1427 FILLER_10_321
*1428 FILLER_10_34
*1429 FILLER_10_37
*1430 FILLER_10_385
*1431 FILLER_10_389
*1432 FILLER_10_392
*1433 FILLER_10_456
*1434 FILLER_10_460
*1435 FILLER_10_463
*1436 FILLER_10_527
*1437 FILLER_10_531
*1438 FILLER_10_534
*1439 FILLER_10_598
*1440 FILLER_10_602
*1441 FILLER_10_605
*1442 FILLER_10_669
*1443 FILLER_10_673
*1444 FILLER_10_676
*1445 FILLER_10_740
*1446 FILLER_10_744
*1447 FILLER_10_747
*1448 FILLER_10_811
*1449 FILLER_10_815
*1450 FILLER_10_818
*1451 FILLER_10_882
*1452 FILLER_10_886
*1453 FILLER_10_889
*1454 FILLER_10_953
*1455 FILLER_10_957
*1456 FILLER_10_960
*1457 FILLER_11_1060
*1458 FILLER_11_1064
*1459 FILLER_11_1067
*1460 FILLER_11_1131
*1461 FILLER_11_1135
*1462 FILLER_11_1138
*1463 FILLER_11_1202
*1464 FILLER_11_1206
*1465 FILLER_11_1209
*1466 FILLER_11_1273
*1467 FILLER_11_1277
*1468 FILLER_11_1280
*1469 FILLER_11_1312
*1470 FILLER_11_137
*1471 FILLER_11_141
*1472 FILLER_11_144
*1473 FILLER_11_2
*1474 FILLER_11_208
*1475 FILLER_11_212
*1476 FILLER_11_215
*1477 FILLER_11_279
*1478 FILLER_11_283
*1479 FILLER_11_286
*1480 FILLER_11_350
*1481 FILLER_11_354
*1482 FILLER_11_357
*1483 FILLER_11_421
*1484 FILLER_11_425
*1485 FILLER_11_428
*1486 FILLER_11_492
*1487 FILLER_11_496
*1488 FILLER_11_499
*1489 FILLER_11_563
*1490 FILLER_11_567
*1491 FILLER_11_570
*1492 FILLER_11_634
*1493 FILLER_11_638
*1494 FILLER_11_641
*1495 FILLER_11_66
*1496 FILLER_11_70
*1497 FILLER_11_705
*1498 FILLER_11_709
*1499 FILLER_11_712
*1500 FILLER_11_73
*1501 FILLER_11_776
*1502 FILLER_11_780
*1503 FILLER_11_783
*1504 FILLER_11_847
*1505 FILLER_11_851
*1506 FILLER_11_854
*1507 FILLER_11_918
*1508 FILLER_11_922
*1509 FILLER_11_925
*1510 FILLER_11_989
*1511 FILLER_11_993
*1512 FILLER_11_996
*1513 FILLER_12_101
*1514 FILLER_12_1024
*1515 FILLER_12_1028
*1516 FILLER_12_1031
*1517 FILLER_12_105
*1518 FILLER_12_108
*1519 FILLER_12_1095
*1520 FILLER_12_1099
*1521 FILLER_12_1102
*1522 FILLER_12_1166
*1523 FILLER_12_1170
*1524 FILLER_12_1173
*1525 FILLER_12_1237
*1526 FILLER_12_1241
*1527 FILLER_12_1244
*1528 FILLER_12_1308
*1529 FILLER_12_1312
*1530 FILLER_12_172
*1531 FILLER_12_176
*1532 FILLER_12_179
*1533 FILLER_12_2
*1534 FILLER_12_243
*1535 FILLER_12_247
*1536 FILLER_12_250
*1537 FILLER_12_314
*1538 FILLER_12_318
*1539 FILLER_12_321
*1540 FILLER_12_34
*1541 FILLER_12_37
*1542 FILLER_12_385
*1543 FILLER_12_389
*1544 FILLER_12_392
*1545 FILLER_12_456
*1546 FILLER_12_460
*1547 FILLER_12_463
*1548 FILLER_12_527
*1549 FILLER_12_531
*1550 FILLER_12_534
*1551 FILLER_12_598
*1552 FILLER_12_602
*1553 FILLER_12_605
*1554 FILLER_12_669
*1555 FILLER_12_673
*1556 FILLER_12_676
*1557 FILLER_12_740
*1558 FILLER_12_744
*1559 FILLER_12_747
*1560 FILLER_12_811
*1561 FILLER_12_815
*1562 FILLER_12_818
*1563 FILLER_12_882
*1564 FILLER_12_886
*1565 FILLER_12_889
*1566 FILLER_12_953
*1567 FILLER_12_957
*1568 FILLER_12_960
*1569 FILLER_13_1060
*1570 FILLER_13_1064
*1571 FILLER_13_1067
*1572 FILLER_13_1131
*1573 FILLER_13_1135
*1574 FILLER_13_1138
*1575 FILLER_13_1202
*1576 FILLER_13_1206
*1577 FILLER_13_1209
*1578 FILLER_13_1273
*1579 FILLER_13_1277
*1580 FILLER_13_1280
*1581 FILLER_13_1312
*1582 FILLER_13_137
*1583 FILLER_13_141
*1584 FILLER_13_144
*1585 FILLER_13_2
*1586 FILLER_13_208
*1587 FILLER_13_212
*1588 FILLER_13_215
*1589 FILLER_13_279
*1590 FILLER_13_283
*1591 FILLER_13_286
*1592 FILLER_13_350
*1593 FILLER_13_354
*1594 FILLER_13_357
*1595 FILLER_13_421
*1596 FILLER_13_425
*1597 FILLER_13_428
*1598 FILLER_13_492
*1599 FILLER_13_496
*1600 FILLER_13_499
*1601 FILLER_13_563
*1602 FILLER_13_567
*1603 FILLER_13_570
*1604 FILLER_13_634
*1605 FILLER_13_638
*1606 FILLER_13_641
*1607 FILLER_13_66
*1608 FILLER_13_70
*1609 FILLER_13_705