*SPEF "ieee 1481-1999"
*DESIGN "wb_mux"
*DATE "11:11:11 Fri 11 11, 1111"
*VENDOR "OpenRCX"
*PROGRAM "Parallel Extraction"
*VERSION "1.0"
*DESIGN_FLOW "NAME_SCOPE LOCAL" "PIN_CAP NONE"
*DIVIDER /
*DELIMITER :
*BUS_DELIMITER []
*T_UNIT 1 NS
*C_UNIT 1 PF
*R_UNIT 1 OHM
*L_UNIT 1 HENRY

*NAME_MAP
*1 io_wbs_ack
*2 io_wbs_ack_0
*3 io_wbs_ack_1
*4 io_wbs_adr[0]
*5 io_wbs_adr[10]
*6 io_wbs_adr[11]
*7 io_wbs_adr[12]
*8 io_wbs_adr[13]
*9 io_wbs_adr[14]
*10 io_wbs_adr[15]
*11 io_wbs_adr[16]
*12 io_wbs_adr[17]
*13 io_wbs_adr[18]
*14 io_wbs_adr[19]
*15 io_wbs_adr[1]
*16 io_wbs_adr[20]
*17 io_wbs_adr[21]
*18 io_wbs_adr[22]
*19 io_wbs_adr[23]
*20 io_wbs_adr[24]
*21 io_wbs_adr[25]
*22 io_wbs_adr[26]
*23 io_wbs_adr[27]
*24 io_wbs_adr[28]
*25 io_wbs_adr[29]
*26 io_wbs_adr[2]
*27 io_wbs_adr[30]
*28 io_wbs_adr[31]
*29 io_wbs_adr[3]
*30 io_wbs_adr[4]
*31 io_wbs_adr[5]
*32 io_wbs_adr[6]
*33 io_wbs_adr[7]
*34 io_wbs_adr[8]
*35 io_wbs_adr[9]
*36 io_wbs_adr_0[0]
*37 io_wbs_adr_0[10]
*38 io_wbs_adr_0[11]
*39 io_wbs_adr_0[12]
*40 io_wbs_adr_0[13]
*41 io_wbs_adr_0[14]
*42 io_wbs_adr_0[15]
*43 io_wbs_adr_0[16]
*44 io_wbs_adr_0[17]
*45 io_wbs_adr_0[18]
*46 io_wbs_adr_0[19]
*47 io_wbs_adr_0[1]
*48 io_wbs_adr_0[20]
*49 io_wbs_adr_0[21]
*50 io_wbs_adr_0[22]
*51 io_wbs_adr_0[23]
*52 io_wbs_adr_0[24]
*53 io_wbs_adr_0[25]
*54 io_wbs_adr_0[26]
*55 io_wbs_adr_0[27]
*56 io_wbs_adr_0[28]
*57 io_wbs_adr_0[29]
*58 io_wbs_adr_0[2]
*59 io_wbs_adr_0[30]
*60 io_wbs_adr_0[31]
*61 io_wbs_adr_0[3]
*62 io_wbs_adr_0[4]
*63 io_wbs_adr_0[5]
*64 io_wbs_adr_0[6]
*65 io_wbs_adr_0[7]
*66 io_wbs_adr_0[8]
*67 io_wbs_adr_0[9]
*68 io_wbs_adr_1[0]
*69 io_wbs_adr_1[10]
*70 io_wbs_adr_1[11]
*71 io_wbs_adr_1[12]
*72 io_wbs_adr_1[13]
*73 io_wbs_adr_1[14]
*74 io_wbs_adr_1[15]
*75 io_wbs_adr_1[16]
*76 io_wbs_adr_1[17]
*77 io_wbs_adr_1[18]
*78 io_wbs_adr_1[19]
*79 io_wbs_adr_1[1]
*80 io_wbs_adr_1[20]
*81 io_wbs_adr_1[21]
*82 io_wbs_adr_1[22]
*83 io_wbs_adr_1[23]
*84 io_wbs_adr_1[24]
*85 io_wbs_adr_1[25]
*86 io_wbs_adr_1[26]
*87 io_wbs_adr_1[27]
*88 io_wbs_adr_1[28]
*89 io_wbs_adr_1[29]
*90 io_wbs_adr_1[2]
*91 io_wbs_adr_1[30]
*92 io_wbs_adr_1[31]
*93 io_wbs_adr_1[3]
*94 io_wbs_adr_1[4]
*95 io_wbs_adr_1[5]
*96 io_wbs_adr_1[6]
*97 io_wbs_adr_1[7]
*98 io_wbs_adr_1[8]
*99 io_wbs_adr_1[9]
*100 io_wbs_cyc
*101 io_wbs_cyc_0
*102 io_wbs_cyc_1
*103 io_wbs_datrd[0]
*104 io_wbs_datrd[10]
*105 io_wbs_datrd[11]
*106 io_wbs_datrd[12]
*107 io_wbs_datrd[13]
*108 io_wbs_datrd[14]
*109 io_wbs_datrd[15]
*110 io_wbs_datrd[16]
*111 io_wbs_datrd[17]
*112 io_wbs_datrd[18]
*113 io_wbs_datrd[19]
*114 io_wbs_datrd[1]
*115 io_wbs_datrd[20]
*116 io_wbs_datrd[21]
*117 io_wbs_datrd[22]
*118 io_wbs_datrd[23]
*119 io_wbs_datrd[24]
*120 io_wbs_datrd[25]
*121 io_wbs_datrd[26]
*122 io_wbs_datrd[27]
*123 io_wbs_datrd[28]
*124 io_wbs_datrd[29]
*125 io_wbs_datrd[2]
*126 io_wbs_datrd[30]
*127 io_wbs_datrd[31]
*128 io_wbs_datrd[3]
*129 io_wbs_datrd[4]
*130 io_wbs_datrd[5]
*131 io_wbs_datrd[6]
*132 io_wbs_datrd[7]
*133 io_wbs_datrd[8]
*134 io_wbs_datrd[9]
*135 io_wbs_datrd_0[0]
*136 io_wbs_datrd_0[10]
*137 io_wbs_datrd_0[11]
*138 io_wbs_datrd_0[12]
*139 io_wbs_datrd_0[13]
*140 io_wbs_datrd_0[14]
*141 io_wbs_datrd_0[15]
*142 io_wbs_datrd_0[16]
*143 io_wbs_datrd_0[17]
*144 io_wbs_datrd_0[18]
*145 io_wbs_datrd_0[19]
*146 io_wbs_datrd_0[1]
*147 io_wbs_datrd_0[20]
*148 io_wbs_datrd_0[21]
*149 io_wbs_datrd_0[22]
*150 io_wbs_datrd_0[23]
*151 io_wbs_datrd_0[24]
*152 io_wbs_datrd_0[25]
*153 io_wbs_datrd_0[26]
*154 io_wbs_datrd_0[27]
*155 io_wbs_datrd_0[28]
*156 io_wbs_datrd_0[29]
*157 io_wbs_datrd_0[2]
*158 io_wbs_datrd_0[30]
*159 io_wbs_datrd_0[31]
*160 io_wbs_datrd_0[3]
*161 io_wbs_datrd_0[4]
*162 io_wbs_datrd_0[5]
*163 io_wbs_datrd_0[6]
*164 io_wbs_datrd_0[7]
*165 io_wbs_datrd_0[8]
*166 io_wbs_datrd_0[9]
*167 io_wbs_datrd_1[0]
*168 io_wbs_datrd_1[10]
*169 io_wbs_datrd_1[11]
*170 io_wbs_datrd_1[12]
*171 io_wbs_datrd_1[13]
*172 io_wbs_datrd_1[14]
*173 io_wbs_datrd_1[15]
*174 io_wbs_datrd_1[16]
*175 io_wbs_datrd_1[17]
*176 io_wbs_datrd_1[18]
*177 io_wbs_datrd_1[19]
*178 io_wbs_datrd_1[1]
*179 io_wbs_datrd_1[20]
*180 io_wbs_datrd_1[21]
*181 io_wbs_datrd_1[22]
*182 io_wbs_datrd_1[23]
*183 io_wbs_datrd_1[24]
*184 io_wbs_datrd_1[25]
*185 io_wbs_datrd_1[26]
*186 io_wbs_datrd_1[27]
*187 io_wbs_datrd_1[28]
*188 io_wbs_datrd_1[29]
*189 io_wbs_datrd_1[2]
*190 io_wbs_datrd_1[30]
*191 io_wbs_datrd_1[31]
*192 io_wbs_datrd_1[3]
*193 io_wbs_datrd_1[4]
*194 io_wbs_datrd_1[5]
*195 io_wbs_datrd_1[6]
*196 io_wbs_datrd_1[7]
*197 io_wbs_datrd_1[8]
*198 io_wbs_datrd_1[9]
*199 io_wbs_datwr[0]
*200 io_wbs_datwr[10]
*201 io_wbs_datwr[11]
*202 io_wbs_datwr[12]
*203 io_wbs_datwr[13]
*204 io_wbs_datwr[14]
*205 io_wbs_datwr[15]
*206 io_wbs_datwr[16]
*207 io_wbs_datwr[17]
*208 io_wbs_datwr[18]
*209 io_wbs_datwr[19]
*210 io_wbs_datwr[1]
*211 io_wbs_datwr[20]
*212 io_wbs_datwr[21]
*213 io_wbs_datwr[22]
*214 io_wbs_datwr[23]
*215 io_wbs_datwr[24]
*216 io_wbs_datwr[25]
*217 io_wbs_datwr[26]
*218 io_wbs_datwr[27]
*219 io_wbs_datwr[28]
*220 io_wbs_datwr[29]
*221 io_wbs_datwr[2]
*222 io_wbs_datwr[30]
*223 io_wbs_datwr[31]
*224 io_wbs_datwr[3]
*225 io_wbs_datwr[4]
*226 io_wbs_datwr[5]
*227 io_wbs_datwr[6]
*228 io_wbs_datwr[7]
*229 io_wbs_datwr[8]
*230 io_wbs_datwr[9]
*231 io_wbs_datwr_0[0]
*232 io_wbs_datwr_0[10]
*233 io_wbs_datwr_0[11]
*234 io_wbs_datwr_0[12]
*235 io_wbs_datwr_0[13]
*236 io_wbs_datwr_0[14]
*237 io_wbs_datwr_0[15]
*238 io_wbs_datwr_0[16]
*239 io_wbs_datwr_0[17]
*240 io_wbs_datwr_0[18]
*241 io_wbs_datwr_0[19]
*242 io_wbs_datwr_0[1]
*243 io_wbs_datwr_0[20]
*244 io_wbs_datwr_0[21]
*245 io_wbs_datwr_0[22]
*246 io_wbs_datwr_0[23]
*247 io_wbs_datwr_0[24]
*248 io_wbs_datwr_0[25]
*249 io_wbs_datwr_0[26]
*250 io_wbs_datwr_0[27]
*251 io_wbs_datwr_0[28]
*252 io_wbs_datwr_0[29]
*253 io_wbs_datwr_0[2]
*254 io_wbs_datwr_0[30]
*255 io_wbs_datwr_0[31]
*256 io_wbs_datwr_0[3]
*257 io_wbs_datwr_0[4]
*258 io_wbs_datwr_0[5]
*259 io_wbs_datwr_0[6]
*260 io_wbs_datwr_0[7]
*261 io_wbs_datwr_0[8]
*262 io_wbs_datwr_0[9]
*263 io_wbs_datwr_1[0]
*264 io_wbs_datwr_1[10]
*265 io_wbs_datwr_1[11]
*266 io_wbs_datwr_1[12]
*267 io_wbs_datwr_1[13]
*268 io_wbs_datwr_1[14]
*269 io_wbs_datwr_1[15]
*270 io_wbs_datwr_1[16]
*271 io_wbs_datwr_1[17]
*272 io_wbs_datwr_1[18]
*273 io_wbs_datwr_1[19]
*274 io_wbs_datwr_1[1]
*275 io_wbs_datwr_1[20]
*276 io_wbs_datwr_1[21]
*277 io_wbs_datwr_1[22]
*278 io_wbs_datwr_1[23]
*279 io_wbs_datwr_1[24]
*280 io_wbs_datwr_1[25]
*281 io_wbs_datwr_1[26]
*282 io_wbs_datwr_1[27]
*283 io_wbs_datwr_1[28]
*284 io_wbs_datwr_1[29]
*285 io_wbs_datwr_1[2]
*286 io_wbs_datwr_1[30]
*287 io_wbs_datwr_1[31]
*288 io_wbs_datwr_1[3]
*289 io_wbs_datwr_1[4]
*290 io_wbs_datwr_1[5]
*291 io_wbs_datwr_1[6]
*292 io_wbs_datwr_1[7]
*293 io_wbs_datwr_1[8]
*294 io_wbs_datwr_1[9]
*295 io_wbs_sel[0]
*296 io_wbs_sel[1]
*297 io_wbs_sel[2]
*298 io_wbs_sel[3]
*299 io_wbs_sel_0[0]
*300 io_wbs_sel_0[1]
*301 io_wbs_sel_0[2]
*302 io_wbs_sel_0[3]
*303 io_wbs_sel_1[0]
*304 io_wbs_sel_1[1]
*305 io_wbs_sel_1[2]
*306 io_wbs_sel_1[3]
*307 io_wbs_stb
*308 io_wbs_stb_0
*309 io_wbs_stb_1
*310 io_wbs_we
*311 io_wbs_we_0
*312 io_wbs_we_1
*315 _000_
*316 _001_
*317 _002_
*318 _003_
*319 _004_
*320 _005_
*321 _006_
*322 _007_
*323 _008_
*324 _009_
*325 _010_
*326 _011_
*327 _012_
*328 _013_
*329 _014_
*330 _015_
*331 _016_
*332 _017_
*333 _018_
*334 _019_
*335 _020_
*336 _021_
*337 _022_
*338 _023_
*339 _024_
*340 _025_
*341 _026_
*342 _027_
*343 _028_
*344 _029_
*345 _030_
*346 _031_
*347 _032_
*348 _033_
*349 _034_
*350 _035_
*351 _036_
*352 _037_
*353 _038_
*354 _039_
*355 _040_
*356 _041_
*357 _042_
*358 _043_
*359 _044_
*360 _045_
*361 _046_
*362 _047_
*363 _048_
*364 _049_
*365 _050_
*366 _051_
*367 _052_
*368 _053_
*369 _054_
*370 _055_
*371 _056_
*372 _057_
*373 _058_
*374 _059_
*375 _060_
*376 _061_
*377 _062_
*378 _063_
*379 _064_
*380 _065_
*381 _066_
*382 _067_
*383 _068_
*384 _069_
*385 _070_
*386 _071_
*387 _072_
*388 _073_
*389 _074_
*390 _075_
*391 _076_
*392 _077_
*393 _078_
*394 _079_
*395 _080_
*396 _081_
*397 _082_
*398 _083_
*399 _084_
*400 _085_
*401 _086_
*402 _087_
*403 _088_
*404 _089_
*405 _090_
*406 _091_
*407 _092_
*408 _093_
*409 _094_
*410 _095_
*411 _096_
*412 _097_
*413 _098_
*414 _099_
*415 net1
*416 net10
*417 net100
*418 net101
*419 net102
*420 net103
*421 net104
*422 net105
*423 net106
*424 net107
*425 net108
*426 net109
*427 net11
*428 net110
*429 net111
*430 net112
*431 net113
*432 net114
*433 net115
*434 net116
*435 net117
*436 net118
*437 net119
*438 net12
*439 net120
*440 net121
*441 net122
*442 net123
*443 net124
*444 net125
*445 net126
*446 net127
*447 net128
*448 net129
*449 net13
*450 net130
*451 net131
*452 net132
*453 net133
*454 net134
*455 net135
*456 net136
*457 net137
*458 net138
*459 net139
*460 net14
*461 net140
*462 net141
*463 net142
*464 net143
*465 net144
*466 net145
*467 net146
*468 net147
*469 net148
*470 net149
*471 net15
*472 net150
*473 net151
*474 net152
*475 net153
*476 net154
*477 net155
*478 net156
*479 net157
*480 net158
*481 net159
*482 net16
*483 net160
*484 net161
*485 net162
*486 net163
*487 net164
*488 net165
*489 net166
*490 net167
*491 net168
*492 net169
*493 net17
*494 net170
*495 net171
*496 net172
*497 net173
*498 net174
*499 net175
*500 net176
*501 net177
*502 net178
*503 net179
*504 net18
*505 net180
*506 net181
*507 net182
*508 net183
*509 net184
*510 net185
*511 net186
*512 net187
*513 net188
*514 net189
*515 net19
*516 net190
*517 net191
*518 net192
*519 net193
*520 net194
*521 net195
*522 net196
*523 net197
*524 net198
*525 net199
*526 net2
*527 net20
*528 net200
*529 net201
*530 net202
*531 net203
*532 net204
*533 net205
*534 net206
*535 net207
*536 net208
*537 net209
*538 net21
*539 net210
*540 net211
*541 net212
*542 net213
*543 net214
*544 net215
*545 net216
*546 net217
*547 net218
*548 net219
*549 net22
*550 net220
*551 net221
*552 net222
*553 net223
*554 net224
*555 net225
*556 net226
*557 net227
*558 net228
*559 net229
*560 net23
*561 net230
*562 net231
*563 net232
*564 net233
*565 net234
*566 net235
*567 net236
*568 net237
*569 net238
*570 net239
*571 net24
*572 net240
*573 net241
*574 net242
*575 net243
*576 net244
*577 net245
*578 net246
*579 net247
*580 net248
*581 net249
*582 net25
*583 net250
*584 net251
*585 net252
*586 net253
*587 net254
*588 net255
*589 net256
*590 net257
*591 net258
*592 net259
*593 net26
*594 net260
*595 net261
*596 net262
*597 net263
*598 net264
*599 net265
*600 net266
*601 net267
*602 net268
*603 net269
*604 net27
*605 net270
*606 net271
*607 net272
*608 net273
*609 net274
*610 net275
*611 net276
*612 net277
*613 net278
*614 net279
*615 net28
*616 net280
*617 net281
*618 net282
*619 net283
*620 net284
*621 net285
*622 net286
*623 net287
*624 net288
*625 net289
*626 net29
*627 net290
*628 net291
*629 net292
*630 net293
*631 net294
*632 net295
*633 net296
*634 net297
*635 net298
*636 net299
*637 net3
*638 net30
*639 net300
*640 net301
*641 net302
*642 net303
*643 net304
*644 net305
*645 net306
*646 net307
*647 net308
*648 net309
*649 net31
*650 net310
*651 net311
*652 net312
*653 net32
*654 net33
*655 net34
*656 net35
*657 net36
*658 net37
*659 net38
*660 net39
*661 net4
*662 net40
*663 net41
*664 net42
*665 net43
*666 net44
*667 net45
*668 net46
*669 net47
*670 net48
*671 net49
*672 net5
*673 net50
*674 net51
*675 net52
*676 net53
*677 net54
*678 net55
*679 net56
*680 net57
*681 net58
*682 net59
*683 net6
*684 net60
*685 net61
*686 net62
*687 net63
*688 net64
*689 net65
*690 net66
*691 net67
*692 net68
*693 net69
*694 net7
*695 net70
*696 net71
*697 net72
*698 net73
*699 net74
*700 net75
*701 net76
*702 net77
*703 net78
*704 net79
*705 net8
*706 net80
*707 net81
*708 net82
*709 net83
*710 net84
*711 net85
*712 net86
*713 net87
*714 net88
*715 net89
*716 net9
*717 net90
*718 net91
*719 net92
*720 net93
*721 net94
*722 net95
*723 net96
*724 net97
*725 net98
*726 net99
*727 ANTENNA__100__I
*728 ANTENNA__101__A1
*729 ANTENNA__101__A2
*730 ANTENNA__101__A3
*731 ANTENNA__101__A4
*732 ANTENNA__102__A1
*733 ANTENNA__102__A2
*734 ANTENNA__103__A1
*735 ANTENNA__103__A2
*736 ANTENNA__104__A1
*737 ANTENNA__104__A2
*738 ANTENNA__104__A3
*739 ANTENNA__104__A4
*740 ANTENNA__105__A1
*741 ANTENNA__105__A2
*742 ANTENNA__105__A3
*743 ANTENNA__105__A4
*744 ANTENNA__107__A1
*745 ANTENNA__107__A2
*746 ANTENNA__107__A3
*747 ANTENNA__108__A1
*748 ANTENNA__108__A2
*749 ANTENNA__108__A3
*750 ANTENNA__109__I
*751 ANTENNA__110__I
*752 ANTENNA__112__I
*753 ANTENNA__113__A2
*754 ANTENNA__113__A3
*755 ANTENNA__114__I
*756 ANTENNA__115__I
*757 ANTENNA__117__I
*758 ANTENNA__118__A2
*759 ANTENNA__118__B1
*760 ANTENNA__119__I
*761 ANTENNA__120__I
*762 ANTENNA__121__A2
*763 ANTENNA__121__B1
*764 ANTENNA__122__I
*765 ANTENNA__123__I
*766 ANTENNA__125__I
*767 ANTENNA__126__I
*768 ANTENNA__127__I
*769 ANTENNA__129__I
*770 ANTENNA__130__I
*771 ANTENNA__132__I
*772 ANTENNA__133__I
*773 ANTENNA__135__I
*774 ANTENNA__136__I
*775 ANTENNA__138__I
*776 ANTENNA__140__I
*777 ANTENNA__141__I
*778 ANTENNA__143__I
*779 ANTENNA__144__I
*780 ANTENNA__146__I
*781 ANTENNA__147__I
*782 ANTENNA__149__I
*783 ANTENNA__150__I
*784 ANTENNA__152__I
*785 ANTENNA__154__I
*786 ANTENNA__155__I
*787 ANTENNA__157__I
*788 ANTENNA__158__I
*789 ANTENNA__160__I
*790 ANTENNA__161__I
*791 ANTENNA__163__I
*792 ANTENNA__164__I
*793 ANTENNA__166__I
*794 ANTENNA__168__I
*795 ANTENNA__169__I
*796 ANTENNA__171__I
*797 ANTENNA__172__I
*798 ANTENNA__174__I
*799 ANTENNA__175__I
*800 ANTENNA__177__I
*801 ANTENNA__178__I
*802 ANTENNA__180__I
*803 ANTENNA__181__I
*804 ANTENNA__182__I
*805 ANTENNA__183__I
*806 ANTENNA__185__I
*807 ANTENNA__186__I
*808 ANTENNA__188__I
*809 ANTENNA__189__I
*810 ANTENNA__191__I
*811 ANTENNA__192__I
*812 ANTENNA__194__I
*813 ANTENNA__195__I
*814 ANTENNA__196__I
*815 ANTENNA__197__I
*816 ANTENNA__199__I
*817 ANTENNA__200__I
*818 ANTENNA__202__I
*819 ANTENNA__203__I
*820 ANTENNA__205__I
*821 ANTENNA__206__I
*822 ANTENNA__208__I
*823 ANTENNA__209__I
*824 ANTENNA__210__I
*825 ANTENNA__211__I
*826 ANTENNA__213__I
*827 ANTENNA__214__I
*828 ANTENNA__216__I
*829 ANTENNA__217__I
*830 ANTENNA__219__I
*831 ANTENNA__220__I
*832 ANTENNA__222__I
*833 ANTENNA__223__I
*834 ANTENNA__225__I
*835 ANTENNA__228__I
*836 ANTENNA__231__I
*837 ANTENNA__232__A2
*838 ANTENNA__233__I
*839 ANTENNA__234__A2
*840 ANTENNA__235__A2
*841 ANTENNA__236__A2
*842 ANTENNA__247__I
*843 ANTENNA__248__I
*844 ANTENNA__249__I
*845 ANTENNA__250__I
*846 ANTENNA__251__I
*847 ANTENNA__252__I
*848 ANTENNA__253__I
*849 ANTENNA__254__I
*850 ANTENNA__255__I
*851 ANTENNA__256__I
*852 ANTENNA__257__I
*853 ANTENNA__258__I
*854 ANTENNA__259__I
*855 ANTENNA__260__I
*856 ANTENNA__261__I
*857 ANTENNA__262__I
*858 ANTENNA__263__I
*859 ANTENNA__264__I
*860 ANTENNA__265__I
*861 ANTENNA__266__I
*862 ANTENNA__267__I
*863 ANTENNA__268__I
*864 ANTENNA__279__I
*865 ANTENNA__280__I
*866 ANTENNA__281__I
*867 ANTENNA__282__I
*868 ANTENNA__283__I
*869 ANTENNA__284__I
*870 ANTENNA__285__I
*871 ANTENNA__286__I
*872 ANTENNA__287__I
*873 ANTENNA__288__I
*874 ANTENNA__289__I
*875 ANTENNA__290__I
*876 ANTENNA__291__I
*877 ANTENNA__292__I
*878 ANTENNA__293__I
*879 ANTENNA__294__I
*880 ANTENNA__295__I
*881 ANTENNA__296__I
*882 ANTENNA__297__I
*883 ANTENNA__298__I
*884 ANTENNA__299__I
*885 ANTENNA__300__I
*886 ANTENNA__301__I
*887 ANTENNA__302__I
*888 ANTENNA__303__I
*889 ANTENNA__304__I
*890 ANTENNA__305__I
*891 ANTENNA__306__I
*892 ANTENNA__307__I
*893 ANTENNA__308__I
*894 ANTENNA__309__I
*895 ANTENNA__310__I
*896 ANTENNA__311__I
*897 ANTENNA__312__I
*898 ANTENNA__313__I
*899 ANTENNA__314__I
*900 ANTENNA__315__I
*901 ANTENNA__316__I
*902 ANTENNA__317__I
*903 ANTENNA__318__I
*904 ANTENNA__319__I
*905 ANTENNA__320__I
*906 ANTENNA__321__I
*907 ANTENNA__322__I
*908 ANTENNA__323__I
*909 ANTENNA__324__I
*910 ANTENNA__325__I
*911 ANTENNA__326__I
*912 ANTENNA__327__I
*913 ANTENNA__328__I
*914 ANTENNA__329__I
*915 ANTENNA__330__I
*916 ANTENNA__331__I
*917 ANTENNA__332__I
*918 ANTENNA__333__I
*919 ANTENNA__334__I
*920 ANTENNA__335__I
*921 ANTENNA__336__I
*922 ANTENNA__337__I
*923 ANTENNA__338__I
*924 ANTENNA__339__I
*925 ANTENNA__340__I
*926 ANTENNA__341__I
*927 ANTENNA__342__I
*928 ANTENNA__343__I
*929 ANTENNA__344__I
*930 ANTENNA__345__I
*931 ANTENNA__346__I
*932 ANTENNA__347__I
*933 ANTENNA__348__I
*934 ANTENNA__349__I
*935 ANTENNA__350__I
*936 ANTENNA__351__I
*937 ANTENNA__352__I
*938 ANTENNA__353__I
*939 ANTENNA__354__I
*940 ANTENNA__355__I
*941 ANTENNA__356__I
*942 ANTENNA__357__I
*943 ANTENNA__358__I
*944 ANTENNA__359__I
*945 ANTENNA__360__I
*946 ANTENNA__361__I
*947 ANTENNA__362__I
*948 ANTENNA__363__I
*949 ANTENNA__364__I
*950 ANTENNA__365__I
*951 ANTENNA__366__I
*952 ANTENNA__367__I
*953 ANTENNA__368__I
*954 ANTENNA__369__I
*955 ANTENNA__370__I
*956 ANTENNA__371__I
*957 ANTENNA__372__I
*958 ANTENNA__373__I
*959 ANTENNA__374__I
*960 ANTENNA_input100_I
*961 ANTENNA_input101_I
*962 ANTENNA_input102_I
*963 ANTENNA_input103_I
*964 ANTENNA_input104_I
*965 ANTENNA_input105_I
*966 ANTENNA_input106_I
*967 ANTENNA_input107_I
*968 ANTENNA_input108_I
*969 ANTENNA_input109_I
*970 ANTENNA_input10_I
*971 ANTENNA_input110_I
*972 ANTENNA_input111_I
*973 ANTENNA_input112_I
*974 ANTENNA_input113_I
*975 ANTENNA_input114_I
*976 ANTENNA_input115_I
*977 ANTENNA_input116_I
*978 ANTENNA_input117_I
*979 ANTENNA_input118_I
*980 ANTENNA_input119_I
*981 ANTENNA_input11_I
*982 ANTENNA_input120_I
*983 ANTENNA_input121_I
*984 ANTENNA_input122_I
*985 ANTENNA_input123_I
*986 ANTENNA_input124_I
*987 ANTENNA_input125_I
*988 ANTENNA_input126_I
*989 ANTENNA_input127_I
*990 ANTENNA_input128_I
*991 ANTENNA_input129_I
*992 ANTENNA_input12_I
*993 ANTENNA_input130_I
*994 ANTENNA_input131_I
*995 ANTENNA_input132_I
*996 ANTENNA_input133_I
*997 ANTENNA_input134_I
*998 ANTENNA_input135_I
*999 ANTENNA_input136_I
*1000 ANTENNA_input137_I
*1001 ANTENNA_input13_I
*1002 ANTENNA_input14_I
*1003 ANTENNA_input15_I
*1004 ANTENNA_input16_I
*1005 ANTENNA_input17_I
*1006 ANTENNA_input18_I
*1007 ANTENNA_input19_I
*1008 ANTENNA_input1_I
*1009 ANTENNA_input20_I
*1010 ANTENNA_input21_I
*1011 ANTENNA_input22_I
*1012 ANTENNA_input23_I
*1013 ANTENNA_input24_I
*1014 ANTENNA_input25_I
*1015 ANTENNA_input26_I
*1016 ANTENNA_input27_I
*1017 ANTENNA_input28_I
*1018 ANTENNA_input29_I
*1019 ANTENNA_input2_I
*1020 ANTENNA_input30_I
*1021 ANTENNA_input31_I
*1022 ANTENNA_input32_I
*1023 ANTENNA_input33_I
*1024 ANTENNA_input34_I
*1025 ANTENNA_input35_I
*1026 ANTENNA_input36_I
*1027 ANTENNA_input37_I
*1028 ANTENNA_input38_I
*1029 ANTENNA_input39_I
*1030 ANTENNA_input3_I
*1031 ANTENNA_input40_I
*1032 ANTENNA_input41_I
*1033 ANTENNA_input42_I
*1034 ANTENNA_input43_I
*1035 ANTENNA_input44_I
*1036 ANTENNA_input45_I
*1037 ANTENNA_input46_I
*1038 ANTENNA_input47_I
*1039 ANTENNA_input48_I
*1040 ANTENNA_input49_I
*1041 ANTENNA_input4_I
*1042 ANTENNA_input50_I
*1043 ANTENNA_input51_I
*1044 ANTENNA_input52_I
*1045 ANTENNA_input53_I
*1046 ANTENNA_input54_I
*1047 ANTENNA_input55_I
*1048 ANTENNA_input56_I
*1049 ANTENNA_input57_I
*1050 ANTENNA_input58_I
*1051 ANTENNA_input59_I
*1052 ANTENNA_input5_I
*1053 ANTENNA_input60_I
*1054 ANTENNA_input61_I
*1055 ANTENNA_input62_I
*1056 ANTENNA_input63_I
*1057 ANTENNA_input64_I
*1058 ANTENNA_input65_I
*1059 ANTENNA_input66_I
*1060 ANTENNA_input67_I
*1061 ANTENNA_input68_I
*1062 ANTENNA_input69_I
*1063 ANTENNA_input6_I
*1064 ANTENNA_input70_I
*1065 ANTENNA_input71_I
*1066 ANTENNA_input72_I
*1067 ANTENNA_input73_I
*1068 ANTENNA_input74_I
*1069 ANTENNA_input75_I
*1070 ANTENNA_input76_I
*1071 ANTENNA_input77_I
*1072 ANTENNA_input78_I
*1073 ANTENNA_input79_I
*1074 ANTENNA_input7_I
*1075 ANTENNA_input80_I
*1076 ANTENNA_input81_I
*1077 ANTENNA_input82_I
*1078 ANTENNA_input83_I
*1079 ANTENNA_input84_I
*1080 ANTENNA_input85_I
*1081 ANTENNA_input86_I
*1082 ANTENNA_input87_I
*1083 ANTENNA_input88_I
*1084 ANTENNA_input89_I
*1085 ANTENNA_input8_I
*1086 ANTENNA_input90_I
*1087 ANTENNA_input91_I
*1088 ANTENNA_input92_I
*1089 ANTENNA_input93_I
*1090 ANTENNA_input94_I
*1091 ANTENNA_input95_I
*1092 ANTENNA_input96_I
*1093 ANTENNA_input97_I
*1094 ANTENNA_input98_I
*1095 ANTENNA_input99_I
*1096 ANTENNA_input9_I
*1097 ANTENNA_output138_I
*1098 ANTENNA_output139_I
*1099 ANTENNA_output140_I
*1100 ANTENNA_output141_I
*1101 ANTENNA_output142_I
*1102 ANTENNA_output143_I
*1103 ANTENNA_output144_I
*1104 ANTENNA_output145_I
*1105 ANTENNA_output146_I
*1106 ANTENNA_output147_I
*1107 ANTENNA_output148_I
*1108 ANTENNA_output149_I
*1109 ANTENNA_output150_I
*1110 ANTENNA_output151_I
*1111 ANTENNA_output152_I
*1112 ANTENNA_output153_I
*1113 ANTENNA_output154_I
*1114 ANTENNA_output155_I
*1115 ANTENNA_output156_I
*1116 ANTENNA_output157_I
*1117 ANTENNA_output158_I
*1118 ANTENNA_output159_I
*1119 ANTENNA_output160_I
*1120 ANTENNA_output161_I
*1121 ANTENNA_output162_I
*1122 ANTENNA_output163_I
*1123 ANTENNA_output164_I
*1124 ANTENNA_output165_I
*1125 ANTENNA_output166_I
*1126 ANTENNA_output167_I
*1127 ANTENNA_output168_I
*1128 ANTENNA_output169_I
*1129 ANTENNA_output170_I
*1130 ANTENNA_output172_I
*1131 ANTENNA_output173_I
*1132 ANTENNA_output174_I
*1133 ANTENNA_output175_I
*1134 ANTENNA_output176_I
*1135 ANTENNA_output177_I
*1136 ANTENNA_output178_I
*1137 ANTENNA_output179_I
*1138 ANTENNA_output180_I
*1139 ANTENNA_output181_I
*1140 ANTENNA_output183_I
*1141 ANTENNA_output184_I
*1142 ANTENNA_output185_I
*1143 ANTENNA_output186_I
*1144 ANTENNA_output187_I
*1145 ANTENNA_output188_I
*1146 ANTENNA_output189_I
*1147 ANTENNA_output190_I
*1148 ANTENNA_output191_I
*1149 ANTENNA_output192_I
*1150 ANTENNA_output194_I
*1151 ANTENNA_output195_I
*1152 ANTENNA_output204_I
*1153 ANTENNA_output205_I
*1154 ANTENNA_output206_I
*1155 ANTENNA_output207_I
*1156 ANTENNA_output208_I
*1157 ANTENNA_output209_I
*1158 ANTENNA_output210_I
*1159 ANTENNA_output211_I
*1160 ANTENNA_output212_I
*1161 ANTENNA_output213_I
*1162 ANTENNA_output214_I
*1163 ANTENNA_output215_I
*1164 ANTENNA_output216_I
*1165 ANTENNA_output217_I
*1166 ANTENNA_output218_I
*1167 ANTENNA_output219_I
*1168 ANTENNA_output220_I
*1169 ANTENNA_output221_I
*1170 ANTENNA_output222_I
*1171 ANTENNA_output223_I
*1172 ANTENNA_output224_I
*1173 ANTENNA_output225_I
*1174 ANTENNA_output226_I
*1175 ANTENNA_output227_I
*1176 ANTENNA_output228_I
*1177 ANTENNA_output229_I
*1178 ANTENNA_output230_I
*1179 ANTENNA_output231_I
*1180 ANTENNA_output232_I
*1181 ANTENNA_output233_I
*1182 ANTENNA_output234_I
*1183 ANTENNA_output235_I
*1184 ANTENNA_output236_I
*1185 ANTENNA_output237_I
*1186 ANTENNA_output238_I
*1187 ANTENNA_output239_I
*1188 ANTENNA_output240_I
*1189 ANTENNA_output241_I
*1190 ANTENNA_output242_I
*1191 ANTENNA_output243_I
*1192 ANTENNA_output244_I
*1193 ANTENNA_output245_I
*1194 ANTENNA_output246_I
*1195 ANTENNA_output247_I
*1196 ANTENNA_output248_I
*1197 ANTENNA_output249_I
*1198 ANTENNA_output250_I
*1199 ANTENNA_output251_I
*1200 ANTENNA_output252_I
*1201 ANTENNA_output253_I
*1202 ANTENNA_output254_I
*1203 ANTENNA_output255_I
*1204 ANTENNA_output256_I
*1205 ANTENNA_output257_I
*1206 ANTENNA_output258_I
*1207 ANTENNA_output259_I
*1208 ANTENNA_output260_I
*1209 ANTENNA_output261_I
*1210 ANTENNA_output262_I
*1211 ANTENNA_output263_I
*1212 ANTENNA_output264_I
*1213 ANTENNA_output265_I
*1214 ANTENNA_output266_I
*1215 ANTENNA_output267_I
*1216 ANTENNA_output268_I
*1217 ANTENNA_output269_I
*1218 ANTENNA_output270_I
*1219 ANTENNA_output271_I
*1220 ANTENNA_output272_I
*1221 ANTENNA_output273_I
*1222 ANTENNA_output274_I
*1223 ANTENNA_output275_I
*1224 ANTENNA_output276_I
*1225 ANTENNA_output277_I
*1226 ANTENNA_output278_I
*1227 ANTENNA_output279_I
*1228 ANTENNA_output280_I
*1229 ANTENNA_output281_I
*1230 ANTENNA_output282_I
*1231 ANTENNA_output283_I
*1232 ANTENNA_output284_I
*1233 ANTENNA_output285_I
*1234 ANTENNA_output286_I
*1235 ANTENNA_output287_I
*1236 ANTENNA_output288_I
*1237 ANTENNA_output289_I
*1238 ANTENNA_output290_I
*1239 ANTENNA_output291_I
*1240 ANTENNA_output292_I
*1241 ANTENNA_output293_I
*1242 ANTENNA_output294_I
*1243 ANTENNA_output295_I
*1244 ANTENNA_output296_I
*1245 ANTENNA_output297_I
*1246 ANTENNA_output298_I
*1247 ANTENNA_output299_I
*1248 ANTENNA_output300_I
*1249 ANTENNA_output305_I
*1250 ANTENNA_output306_I
*1251 ANTENNA_output307_I
*1252 ANTENNA_output308_I
*1253 ANTENNA_output310_I
*1254 ANTENNA_output312_I
*1255 FILLER_0_104
*1256 FILLER_0_107
*1257 FILLER_0_115
*1258 FILLER_0_123
*1259 FILLER_0_131
*1260 FILLER_0_139
*1261 FILLER_0_142
*1262 FILLER_0_150
*1263 FILLER_0_158
*1264 FILLER_0_166
*1265 FILLER_0_174
*1266 FILLER_0_177
*1267 FILLER_0_18
*1268 FILLER_0_185
*1269 FILLER_0_193
*1270 FILLER_0_2
*1271 FILLER_0_201
*1272 FILLER_0_209
*1273 FILLER_0_212
*1274 FILLER_0_220
*1275 FILLER_0_228
*1276 FILLER_0_236
*1277 FILLER_0_244
*1278 FILLER_0_247
*1279 FILLER_0_255
*1280 FILLER_0_26
*1281 FILLER_0_263
*1282 FILLER_0_271
*1283 FILLER_0_279
*1284 FILLER_0_282
*1285 FILLER_0_290
*1286 FILLER_0_298
*1287 FILLER_0_30
*1288 FILLER_0_306
*1289 FILLER_0_314
*1290 FILLER_0_317
*1291 FILLER_0_325
*1292 FILLER_0_333
*1293 FILLER_0_34
*1294 FILLER_0_341
*1295 FILLER_0_349
*1296 FILLER_0_352
*1297 FILLER_0_358
*1298 FILLER_0_366
*1299 FILLER_0_37
*1300 FILLER_0_374
*1301 FILLER_0_382
*1302 FILLER_0_384
*1303 FILLER_0_387
*1304 FILLER_0_394
*1305 FILLER_0_402
*1306 FILLER_0_410
*1307 FILLER_0_418
*1308 FILLER_0_422
*1309 FILLER_0_437
*1310 FILLER_0_45
*1311 FILLER_0_453
*1312 FILLER_0_457
*1313 FILLER_0_472
*1314 FILLER_0_488
*1315 FILLER_0_492
*1316 FILLER_0_507
*1317 FILLER_0_523
*1318 FILLER_0_527
*1319 FILLER_0_53
*1320 FILLER_0_542
*1321 FILLER_0_558
*1322 FILLER_0_562
*1323 FILLER_0_577
*1324 FILLER_0_593
*1325 FILLER_0_597
*1326 FILLER_0_61
*1327 FILLER_0_612
*1328 FILLER_0_628
*1329 FILLER_0_632
*1330 FILLER_0_639
*1331 FILLER_0_643
*1332 FILLER_0_647
*1333 FILLER_0_662
*1334 FILLER_0_664
*1335 FILLER_0_667
*1336 FILLER_0_683
*1337 FILLER_0_687
*1338 FILLER_0_69
*1339 FILLER_0_72
*1340 FILLER_0_80
*1341 FILLER_0_88
*1342 FILLER_0_96
*1343 FILLER_10_105
*1344 FILLER_10_108
*1345 FILLER_10_17
*1346 FILLER_10_172
*1347 FILLER_10_176
*1348 FILLER_10_179
*1349 FILLER_10_2
*1350 FILLER_10_21
*1351 FILLER_10_243
*1352 FILLER_10_247
*1353 FILLER_10_25
*1354 FILLER_10_250
*1355 FILLER_10_314
*1356 FILLER_10_318
*1357 FILLER_10_321
*1358 FILLER_10_33
*1359 FILLER_10_37
*1360 FILLER_10_385
*1361 FILLER_10_389
*1362 FILLER_10_392
*1363 FILLER_10_456
*1364 FILLER_10_460
*1365 FILLER_10_463
*1366 FILLER_10_527
*1367 FILLER_10_531
*1368 FILLER_10_534
*1369 FILLER_10_598
*1370 FILLER_10_602
*1371 FILLER_10_605
*1372 FILLER_10_637
*1373 FILLER_10_653
*1374 FILLER_10_657
*1375 FILLER_10_673
*1376 FILLER_10_676
*1377 FILLER_10_679
*1378 FILLER_10_687
*1379 FILLER_10_69
*1380 FILLER_10_77
*1381 FILLER_10_81
*1382 FILLER_10_89
*1383 FILLER_10_97
*1384 FILLER_11_102
*1385 FILLER_11_104
*1386 FILLER_11_111
*1387 FILLER_11_115
*1388 FILLER_11_131
*1389 FILLER_11_139
*1390 FILLER_11_141
*1391 FILLER_11_144
*1392 FILLER_11_17
*1393 FILLER_11_2
*1394 FILLER_11_208
*1395 FILLER_11_212
*1396 FILLER_11_215
*1397 FILLER_11_279
*1398 FILLER_11_283
*1399 FILLER_11_286
*1400 FILLER_11_33
*1401 FILLER_11_350
*1402 FILLER_11_354
*1403 FILLER_11_357
*1404 FILLER_11_421
*1405 FILLER_11_425
*1406 FILLER_11_428
*1407 FILLER_11_492
*1408 FILLER_11_496
*1409 FILLER_11_499
*1410 FILLER_11_563
*1411 FILLER_11_567
*1412 FILLER_11_570
*1413 FILLER_11_634
*1414 FILLER_11_638
*1415 FILLER_11_641
*1416 FILLER_11_649
*1417 FILLER_11_65
*1418 FILLER_11_655
*1419 FILLER_11_671
*1420 FILLER_11_687
*1421 FILLER_11_69
*1422 FILLER_11_73
*1423 FILLER_11_81
*1424 FILLER_11_85
*1425 FILLER_11_87
*1426 FILLER_11_94
*1427 FILLER_12_100
*1428 FILLER_12_102
*1429 FILLER_12_105
*1430 FILLER_12_108
*1431 FILLER_12_17
*1432 FILLER_12_172
*1433 FILLER_12_176
*1434 FILLER_12_179
*1435 FILLER_12_2
*1436 FILLER_12_21
*1437 FILLER_12_243
*1438 FILLER_12_247
*1439 FILLER_12_250
*1440 FILLER_12_29
*1441 FILLER_12_314
*1442 FILLER_12_318
*1443 FILLER_12_321
*1444 FILLER_12_33
*1445 FILLER_12_37
*1446 FILLER_12_385
*1447 FILLER_12_389
*1448 FILLER_12_392
*1449 FILLER_12_456
*1450 FILLER_12_460
*1451 FILLER_12_463
*1452 FILLER_12_471
*1453 FILLER_12_475
*1454 FILLER_12_477
*1455 FILLER_12_480
*1456 FILLER_12_512
*1457 FILLER_12_528
*1458 FILLER_12_534
*1459 FILLER_12_598
*1460 FILLER_12_602
*1461 FILLER_12_605
*1462 FILLER_12_669
*1463 FILLER_12_673
*1464 FILLER_12_676
*1465 FILLER_12_684
*1466 FILLER_12_69
*1467 FILLER_12_85
*1468 FILLER_12_93
*1469 FILLER_12_96
*1470 FILLER_13_104
*1471 FILLER_13_112
*1472 FILLER_13_116
*1473 FILLER_13_132
*1474 FILLER_13_140
*1475 FILLER_13_144
*1476 FILLER_13_17
*1477 FILLER_13_2
*1478 FILLER_13_208
*1479 FILLER_13_21
*1480 FILLER_13_212
*1481 FILLER_13_215
*1482 FILLER_13_279
*1483 FILLER_13_283
*1484 FILLER_13_286
*1485 FILLER_13_350
*1486 FILLER_13_354
*1487 FILLER_13_357
*1488 FILLER_13_421
*1489 FILLER_13_425
*1490 FILLER_13_428
*1491 FILLER_13_460
*1492 FILLER_13_468
*1493 FILLER_13_472
*1494 FILLER_13_475
*1495 FILLER_13_479
*1496 FILLER_13_486
*1497 FILLER_13_496
*1498 FILLER_13_499
*1499 FILLER_13_506
*1500 FILLER_13_53
*1501 FILLER_13_538
*1502 FILLER_13_554
*1503 FILLER_13_562
*1504 FILLER_13_566
*1505 FILLER_13_570
*1506 FILLER_13_634
*1507 FILLER_13_638
*1508 FILLER_13_641
*1509 FILLER_13_649
*1510 FILLER_13_655
*1511 FILLER_13_671
*1512 FILLER_13_687
*1513 FILLER_13_69
*1514 FILLER_13_73
*1515 FILLER_13_89
*1516 FILLER_13_93
*1517 FILLER_13_96
*1518 FILLER_14_101
*1519 FILLER_14_105
*1520 FILLER_14_108
*1521 FILLER_14_118
*1522 FILLER_14_122
*1523 FILLER_14_154
*1524 FILLER_14_17
*1525 FILLER_14_170
*1526 FILLER_14_174
*1527 FILLER_14_176
*1528 FILLER_14_179
*1529 FILLER_14_2
*1530 FILLER_14_21
*1531 FILLER_14_243
*1532 FILLER_14_247
*1533 FILLER_14_250
*1534 FILLER_14_29
*1535 FILLER_14_314
*1536 FILLER_14_318
*1537 FILLER_14_321
*1538 FILLER_14_33
*1539 FILLER_14_37
*1540 FILLER_14_385
*1541 FILLER_14_389
*1542 FILLER_14_392
*1543 FILLER_14_456
*1544 FILLER_14_460
*1545 FILLER_14_463
*1546 FILLER_14_467
*1547 FILLER_14_471
*1548 FILLER_14_483
*1549 FILLER_14_491
*1550 FILLER_14_495
*1551 FILLER_14_527
*1552 FILLER_14_531
*1553 FILLER_14_534
*1554 FILLER_14_598
*1555 FILLER_14_602