*SPEF "ieee 1481-1999"
*DESIGN "merge_memory"
*DATE "11:11:11 Fri 11 11, 1111"
*VENDOR "OpenRCX"
*PROGRAM "Parallel Extraction"
*VERSION "1.0"
*DESIGN_FLOW "NAME_SCOPE LOCAL" "PIN_CAP NONE"
*DIVIDER /
*DELIMITER :
*BUS_DELIMITER []
*T_UNIT 1 NS
*C_UNIT 1 PF
*R_UNIT 1 OHM
*L_UNIT 1 HENRY

*NAME_MAP
*1 addr[0]
*2 addr[1]
*3 addr[2]
*4 addr[3]
*5 addr[4]
*6 addr[5]
*7 addr[6]
*8 addr[7]
*9 addr[8]
*10 addr[9]
*11 addr_mem0[0]
*12 addr_mem0[1]
*13 addr_mem0[2]
*14 addr_mem0[3]
*15 addr_mem0[4]
*16 addr_mem0[5]
*17 addr_mem0[6]
*18 addr_mem0[7]
*19 addr_mem0[8]
*20 addr_mem1[0]
*21 addr_mem1[1]
*22 addr_mem1[2]
*23 addr_mem1[3]
*24 addr_mem1[4]
*25 addr_mem1[5]
*26 addr_mem1[6]
*27 addr_mem1[7]
*28 addr_mem1[8]
*29 csb
*30 csb_mem0
*31 csb_mem1
*32 dout[0]
*33 dout[10]
*34 dout[11]
*35 dout[12]
*36 dout[13]
*37 dout[14]
*38 dout[15]
*39 dout[16]
*40 dout[17]
*41 dout[18]
*42 dout[19]
*43 dout[1]
*44 dout[20]
*45 dout[21]
*46 dout[22]
*47 dout[23]
*48 dout[24]
*49 dout[25]
*50 dout[26]
*51 dout[27]
*52 dout[28]
*53 dout[29]
*54 dout[2]
*55 dout[30]
*56 dout[31]
*57 dout[3]
*58 dout[4]
*59 dout[5]
*60 dout[6]
*61 dout[7]
*62 dout[8]
*63 dout[9]
*64 dout_mem0[0]
*65 dout_mem0[10]
*66 dout_mem0[11]
*67 dout_mem0[12]
*68 dout_mem0[13]
*69 dout_mem0[14]
*70 dout_mem0[15]
*71 dout_mem0[16]
*72 dout_mem0[17]
*73 dout_mem0[18]
*74 dout_mem0[19]
*75 dout_mem0[1]
*76 dout_mem0[20]
*77 dout_mem0[21]
*78 dout_mem0[22]
*79 dout_mem0[23]
*80 dout_mem0[24]
*81 dout_mem0[25]
*82 dout_mem0[26]
*83 dout_mem0[27]
*84 dout_mem0[28]
*85 dout_mem0[29]
*86 dout_mem0[2]
*87 dout_mem0[30]
*88 dout_mem0[31]
*89 dout_mem0[3]
*90 dout_mem0[4]
*91 dout_mem0[5]
*92 dout_mem0[6]
*93 dout_mem0[7]
*94 dout_mem0[8]
*95 dout_mem0[9]
*96 dout_mem1[0]
*97 dout_mem1[10]
*98 dout_mem1[11]
*99 dout_mem1[12]
*100 dout_mem1[13]
*101 dout_mem1[14]
*102 dout_mem1[15]
*103 dout_mem1[16]
*104 dout_mem1[17]
*105 dout_mem1[18]
*106 dout_mem1[19]
*107 dout_mem1[1]
*108 dout_mem1[20]
*109 dout_mem1[21]
*110 dout_mem1[22]
*111 dout_mem1[23]
*112 dout_mem1[24]
*113 dout_mem1[25]
*114 dout_mem1[26]
*115 dout_mem1[27]
*116 dout_mem1[28]
*117 dout_mem1[29]
*118 dout_mem1[2]
*119 dout_mem1[30]
*120 dout_mem1[31]
*121 dout_mem1[3]
*122 dout_mem1[4]
*123 dout_mem1[5]
*124 dout_mem1[6]
*125 dout_mem1[7]
*126 dout_mem1[8]
*127 dout_mem1[9]
*130 _000_
*131 _001_
*132 _002_
*133 _003_
*134 _004_
*135 _005_
*136 _006_
*137 _007_
*138 _008_
*139 _009_
*140 _010_
*141 _011_
*142 _012_
*143 _013_
*144 _014_
*145 _015_
*146 _016_
*147 _017_
*148 _018_
*149 _019_
*150 _020_
*151 _021_
*152 _022_
*153 _023_
*154 _024_
*155 _025_
*156 _026_
*157 _027_
*158 _028_
*159 _029_
*160 _030_
*161 _031_
*162 _032_
*163 _033_
*164 _034_
*165 net1
*166 net10
*167 net100
*168 net101
*169 net102
*170 net103
*171 net104
*172 net105
*173 net106
*174 net107
*175 net108
*176 net109
*177 net11
*178 net110
*179 net111
*180 net112
*181 net113
*182 net114
*183 net115
*184 net116
*185 net117
*186 net118
*187 net119
*188 net12
*189 net120
*190 net121
*191 net122
*192 net123
*193 net124
*194 net125
*195 net126
*196 net127
*197 net13
*198 net14
*199 net15
*200 net16
*201 net17
*202 net18
*203 net19
*204 net2
*205 net20
*206 net21
*207 net22
*208 net23
*209 net24
*210 net25
*211 net26
*212 net27
*213 net28
*214 net29
*215 net3
*216 net30
*217 net31
*218 net32
*219 net33
*220 net34
*221 net35
*222 net36
*223 net37
*224 net38
*225 net39
*226 net4
*227 net40
*228 net41
*229 net42
*230 net43
*231 net44
*232 net45
*233 net46
*234 net47
*235 net48
*236 net49
*237 net5
*238 net50
*239 net51
*240 net52
*241 net53
*242 net54
*243 net55
*244 net56
*245 net57
*246 net58
*247 net59
*248 net6
*249 net60
*250 net61
*251 net62
*252 net63
*253 net64
*254 net65
*255 net66
*256 net67
*257 net68
*258 net69
*259 net7
*260 net70
*261 net71
*262 net72
*263 net73
*264 net74
*265 net75
*266 net76
*267 net77
*268 net78
*269 net79
*270 net8
*271 net80
*272 net81
*273 net82
*274 net83
*275 net84
*276 net85
*277 net86
*278 net87
*279 net88
*280 net89
*281 net9
*282 net90
*283 net91
*284 net92
*285 net93
*286 net94
*287 net95
*288 net96
*289 net97
*290 net98
*291 net99
*292 ANTENNA__035__A
*293 ANTENNA__036__A0
*294 ANTENNA__038__A0
*295 ANTENNA__040__A0
*296 ANTENNA__042__A0
*297 ANTENNA__044__A0
*298 ANTENNA__046__A0
*299 ANTENNA__048__A0
*300 ANTENNA__050__A0
*301 ANTENNA__052__A0
*302 ANTENNA__054__A0
*303 ANTENNA__056__A
*304 ANTENNA__057__A0
*305 ANTENNA__057__A1
*306 ANTENNA__057__S
*307 ANTENNA__059__A0
*308 ANTENNA__059__A1
*309 ANTENNA__059__S
*310 ANTENNA__061__A0
*311 ANTENNA__061__A1
*312 ANTENNA__061__S
*313 ANTENNA__063__A0
*314 ANTENNA__063__A1
*315 ANTENNA__063__S
*316 ANTENNA__065__A0
*317 ANTENNA__065__A1
*318 ANTENNA__065__S
*319 ANTENNA__067__A0
*320 ANTENNA__067__S
*321 ANTENNA__069__A0
*322 ANTENNA__069__S
*323 ANTENNA__071__A0
*324 ANTENNA__071__S
*325 ANTENNA__073__A0
*326 ANTENNA__073__S
*327 ANTENNA__075__A0
*328 ANTENNA__075__S
*329 ANTENNA__077__A
*330 ANTENNA__078__A0
*331 ANTENNA__080__A0
*332 ANTENNA__082__A0
*333 ANTENNA__084__A0
*334 ANTENNA__086__A0
*335 ANTENNA__088__A0
*336 ANTENNA__090__A0
*337 ANTENNA__092__A0
*338 ANTENNA__094__A0
*339 ANTENNA__096__A0
*340 ANTENNA__098__A0
*341 ANTENNA__098__S
*342 ANTENNA__100__A0
*343 ANTENNA__100__S
*344 ANTENNA__102__A
*345 ANTENNA__103__A
*346 ANTENNA__104__A
*347 ANTENNA__105__A
*348 ANTENNA__106__A
*349 ANTENNA__107__A
*350 ANTENNA__108__A
*351 ANTENNA__109__A
*352 ANTENNA__110__A
*353 ANTENNA__111__A
*354 ANTENNA__112__A
*355 ANTENNA__113__A
*356 ANTENNA__114__A
*357 ANTENNA__115__A
*358 ANTENNA__116__A
*359 ANTENNA__117__A
*360 ANTENNA__118__A
*361 ANTENNA__119__A
*362 ANTENNA__120__A
*363 ANTENNA__121__A
*364 ANTENNA_input10_A
*365 ANTENNA_input11_A
*366 ANTENNA_input12_A
*367 ANTENNA_input13_A
*368 ANTENNA_input14_A
*369 ANTENNA_input15_A
*370 ANTENNA_input16_A
*371 ANTENNA_input17_A
*372 ANTENNA_input18_A
*373 ANTENNA_input19_A
*374 ANTENNA_input1_A
*375 ANTENNA_input20_A
*376 ANTENNA_input21_A
*377 ANTENNA_input22_A
*378 ANTENNA_input23_A
*379 ANTENNA_input24_A
*380 ANTENNA_input25_A
*381 ANTENNA_input26_A
*382 ANTENNA_input27_A
*383 ANTENNA_input28_A
*384 ANTENNA_input29_A
*385 ANTENNA_input2_A
*386 ANTENNA_input30_A
*387 ANTENNA_input31_A
*388 ANTENNA_input32_A
*389 ANTENNA_input33_A
*390 ANTENNA_input34_A
*391 ANTENNA_input35_A
*392 ANTENNA_input36_A
*393 ANTENNA_input37_A
*394 ANTENNA_input38_A
*395 ANTENNA_input39_A
*396 ANTENNA_input3_A
*397 ANTENNA_input40_A
*398 ANTENNA_input41_A
*399 ANTENNA_input42_A
*400 ANTENNA_input43_A
*401 ANTENNA_input44_A
*402 ANTENNA_input45_A
*403 ANTENNA_input46_A
*404 ANTENNA_input47_A
*405 ANTENNA_input48_A
*406 ANTENNA_input49_A
*407 ANTENNA_input4_A
*408 ANTENNA_input50_A
*409 ANTENNA_input51_A
*410 ANTENNA_input52_A
*411 ANTENNA_input53_A
*412 ANTENNA_input54_A
*413 ANTENNA_input55_A
*414 ANTENNA_input56_A
*415 ANTENNA_input57_A
*416 ANTENNA_input58_A
*417 ANTENNA_input59_A
*418 ANTENNA_input5_A
*419 ANTENNA_input60_A
*420 ANTENNA_input61_A
*421 ANTENNA_input62_A
*422 ANTENNA_input63_A
*423 ANTENNA_input64_A
*424 ANTENNA_input65_A
*425 ANTENNA_input66_A
*426 ANTENNA_input67_A
*427 ANTENNA_input68_A
*428 ANTENNA_input69_A
*429 ANTENNA_input6_A
*430 ANTENNA_input70_A
*431 ANTENNA_input71_A
*432 ANTENNA_input72_A
*433 ANTENNA_input73_A
*434 ANTENNA_input74_A
*435 ANTENNA_input75_A
*436 ANTENNA_input7_A
*437 ANTENNA_input8_A
*438 ANTENNA_input9_A
*439 ANTENNA_output100_A
*440 ANTENNA_output101_A
*441 ANTENNA_output102_A
*442 ANTENNA_output103_A
*443 ANTENNA_output104_A
*444 ANTENNA_output105_A
*445 ANTENNA_output106_A
*446 ANTENNA_output107_A
*447 ANTENNA_output108_A
*448 ANTENNA_output109_A
*449 ANTENNA_output110_A
*450 ANTENNA_output111_A
*451 ANTENNA_output112_A
*452 ANTENNA_output113_A
*453 ANTENNA_output114_A
*454 ANTENNA_output115_A
*455 ANTENNA_output116_A
*456 ANTENNA_output117_A
*457 ANTENNA_output118_A
*458 ANTENNA_output119_A
*459 ANTENNA_output120_A
*460 ANTENNA_output121_A
*461 ANTENNA_output122_A
*462 ANTENNA_output123_A
*463 ANTENNA_output124_A
*464 ANTENNA_output125_A
*465 ANTENNA_output126_A
*466 ANTENNA_output127_A
*467 ANTENNA_output76_A
*468 ANTENNA_output77_A
*469 ANTENNA_output78_A
*470 ANTENNA_output79_A
*471 ANTENNA_output80_A
*472 ANTENNA_output81_A
*473 ANTENNA_output82_A
*474 ANTENNA_output83_A
*475 ANTENNA_output84_A
*476 ANTENNA_output94_A
*477 ANTENNA_output96_A
*478 ANTENNA_output97_A
*479 ANTENNA_output98_A
*480 ANTENNA_output99_A
*481 FILLER_0_1006
*482 FILLER_0_1009
*483 FILLER_0_101
*484 FILLER_0_1020
*485 FILLER_0_1027
*486 FILLER_0_1033
*487 FILLER_0_1037
*488 FILLER_0_1048
*489 FILLER_0_1052
*490 FILLER_0_1062
*491 FILLER_0_1065
*492 FILLER_0_1071
*493 FILLER_0_1081
*494 FILLER_0_1088
*495 FILLER_0_109
*496 FILLER_0_1093
*497 FILLER_0_1097
*498 FILLER_0_1101
*499 FILLER_0_1107
*500 FILLER_0_1119
*501 FILLER_0_1121
*502 FILLER_0_1126
*503 FILLER_0_113
*504 FILLER_0_1132
*505 FILLER_0_1139
*506 FILLER_0_1145
*507 FILLER_0_1149
*508 FILLER_0_1158
*509 FILLER_0_1164
*510 FILLER_0_1177
*511 FILLER_0_1182
*512 FILLER_0_1188
*513 FILLER_0_119
*514 FILLER_0_1192
*515 FILLER_0_1196
*516 FILLER_0_1202
*517 FILLER_0_1205
*518 FILLER_0_1211
*519 FILLER_0_1215
*520 FILLER_0_1221
*521 FILLER_0_1227
*522 FILLER_0_1230
*523 FILLER_0_1233
*524 FILLER_0_1238
*525 FILLER_0_1242
*526 FILLER_0_1246
*527 FILLER_0_125
*528 FILLER_0_1253
*529 FILLER_0_1259
*530 FILLER_0_1261
*531 FILLER_0_1272
*532 FILLER_0_1285
*533 FILLER_0_1289
*534 FILLER_0_1300
*535 FILLER_0_1307
*536 FILLER_0_1314
*537 FILLER_0_1317
*538 FILLER_0_1321
*539 FILLER_0_1325
*540 FILLER_0_1329
*541 FILLER_0_133
*542 FILLER_0_1335
*543 FILLER_0_1342
*544 FILLER_0_1345
*545 FILLER_0_1356
*546 FILLER_0_1369
*547 FILLER_0_1373
*548 FILLER_0_1384
*549 FILLER_0_139
*550 FILLER_0_1397
*551 FILLER_0_1401
*552 FILLER_0_1406
*553 FILLER_0_141
*554 FILLER_0_1413
*555 FILLER_0_1424
*556 FILLER_0_1429
*557 FILLER_0_1437
*558 FILLER_0_1443
*559 FILLER_0_1449
*560 FILLER_0_1455
*561 FILLER_0_1457
*562 FILLER_0_1462
*563 FILLER_0_1468
*564 FILLER_0_147
*565 FILLER_0_1474
*566 FILLER_0_1481
*567 FILLER_0_1485
*568 FILLER_0_1500
*569 FILLER_0_1506
*570 FILLER_0_1513
*571 FILLER_0_1519
*572 FILLER_0_152
*573 FILLER_0_1525
*574 FILLER_0_1531
*575 FILLER_0_1538
*576 FILLER_0_1541
*577 FILLER_0_1547
*578 FILLER_0_1550
*579 FILLER_0_1564
*580 FILLER_0_1569
*581 FILLER_0_158
*582 FILLER_0_1583
*583 FILLER_0_1589
*584 FILLER_0_1595
*585 FILLER_0_1597
*586 FILLER_0_1601
*587 FILLER_0_166
*588 FILLER_0_169
*589 FILLER_0_175
*590 FILLER_0_181
*591 FILLER_0_185
*592 FILLER_0_19
*593 FILLER_0_190
*594 FILLER_0_197
*595 FILLER_0_201
*596 FILLER_0_209
*597 FILLER_0_217
*598 FILLER_0_222
*599 FILLER_0_225
*600 FILLER_0_231
*601 FILLER_0_239
*602 FILLER_0_247
*603 FILLER_0_25
*604 FILLER_0_251
*605 FILLER_0_253
*606 FILLER_0_258
*607 FILLER_0_266
*608 FILLER_0_274
*609 FILLER_0_278
*610 FILLER_0_281
*611 FILLER_0_287
*612 FILLER_0_29
*613 FILLER_0_293
*614 FILLER_0_296
*615 FILLER_0_3
*616 FILLER_0_304
*617 FILLER_0_309
*618 FILLER_0_315
*619 FILLER_0_323
*620 FILLER_0_33
*621 FILLER_0_331
*622 FILLER_0_334
*623 FILLER_0_337
*624 FILLER_0_343
*625 FILLER_0_353
*626 FILLER_0_361
*627 FILLER_0_365
*628 FILLER_0_369
*629 FILLER_0_372
*630 FILLER_0_38
*631 FILLER_0_380
*632 FILLER_0_390
*633 FILLER_0_393
*634 FILLER_0_399
*635 FILLER_0_407
*636 FILLER_0_410
*637 FILLER_0_418
*638 FILLER_0_421
*639 FILLER_0_429
*640 FILLER_0_437
*641 FILLER_0_44
*642 FILLER_0_443
*643 FILLER_0_446
*644 FILLER_0_449
*645 FILLER_0_456
*646 FILLER_0_468
*647 FILLER_0_474
*648 FILLER_0_477
*649 FILLER_0_483
*650 FILLER_0_489
*651 FILLER_0_494
*652 FILLER_0_502
*653 FILLER_0_505
*654 FILLER_0_513
*655 FILLER_0_525
*656 FILLER_0_530
*657 FILLER_0_533
*658 FILLER_0_539
*659 FILLER_0_551
*660 FILLER_0_559
*661 FILLER_0_561
*662 FILLER_0_565
*663 FILLER_0_57
*664 FILLER_0_570
*665 FILLER_0_582
*666 FILLER_0_586
*667 FILLER_0_589
*668 FILLER_0_595
*669 FILLER_0_603
*670 FILLER_0_608
*671 FILLER_0_617
*672 FILLER_0_627
*673 FILLER_0_63
*674 FILLER_0_639
*675 FILLER_0_642
*676 FILLER_0_645
*677 FILLER_0_651
*678 FILLER_0_657
*679 FILLER_0_665
*680 FILLER_0_671
*681 FILLER_0_673
*682 FILLER_0_679
*683 FILLER_0_684
*684 FILLER_0_698
*685 FILLER_0_701
*686 FILLER_0_707
*687 FILLER_0_71
*688 FILLER_0_711
*689 FILLER_0_714
*690 FILLER_0_722
*691 FILLER_0_729
*692 FILLER_0_733
*693 FILLER_0_741
*694 FILLER_0_749
*695 FILLER_0_754
*696 FILLER_0_757
*697 FILLER_0_76
*698 FILLER_0_763
*699 FILLER_0_771
*700 FILLER_0_779
*701 FILLER_0_783
*702 FILLER_0_785
*703 FILLER_0_790
*704 FILLER_0_798
*705 FILLER_0_810
*706 FILLER_0_813
*707 FILLER_0_819
*708 FILLER_0_82
*709 FILLER_0_827
*710 FILLER_0_831
*711 FILLER_0_836
*712 FILLER_0_841
*713 FILLER_0_847
*714 FILLER_0_85
*715 FILLER_0_855
*716 FILLER_0_861
*717 FILLER_0_866
*718 FILLER_0_869
*719 FILLER_0_875
*720 FILLER_0_879
*721 FILLER_0_884
*722 FILLER_0_888
*723 FILLER_0_893
*724 FILLER_0_897
*725 FILLER_0_903
*726 FILLER_0_907
*727 FILLER_0_912
*728 FILLER_0_918
*729 FILLER_0_925
*730 FILLER_0_931
*731 FILLER_0_939
*732 FILLER_0_947
*733 FILLER_0_95
*734 FILLER_0_951
*735 FILLER_0_953
*736 FILLER_0_959
*737 FILLER_0_967
*738 FILLER_0_975
*739 FILLER_0_979
*740 FILLER_0_981
*741 FILLER_0_988
*742 FILLER_0_996
*743 FILLER_0_999
*744 FILLER_10_1005
*745 FILLER_10_1017
*746 FILLER_10_1029
*747 FILLER_10_1035
*748 FILLER_10_1037
*749 FILLER_10_1049
*750 FILLER_10_1061
*751 FILLER_10_1073
*752 FILLER_10_1085
*753 FILLER_10_109
*754 FILLER_10_1091
*755 FILLER_10_1093
*756 FILLER_10_1105
*757 FILLER_10_1117
*758 FILLER_10_1129
*759 FILLER_10_1141
*760 FILLER_10_1147
*761 FILLER_10_1149
*762 FILLER_10_1161
*763 FILLER_10_1173
*764 FILLER_10_1185
*765 FILLER_10_1197
*766 FILLER_10_1203
*767 FILLER_10_1205
*768 FILLER_10_121
*769 FILLER_10_1217
*770 FILLER_10_1229
*771 FILLER_10_1241
*772 FILLER_10_1253
*773 FILLER_10_1259
*774 FILLER_10_1261
*775 FILLER_10_1273
*776 FILLER_10_1285
*777 FILLER_10_1297
*778 FILLER_10_1309
*779 FILLER_10_1315
*780 FILLER_10_1317
*781 FILLER_10_1329
*782 FILLER_10_133
*783 FILLER_10_1341
*784 FILLER_10_1353
*785 FILLER_10_1365
*786 FILLER_10_1371
*787 FILLER_10_1373
*788 FILLER_10_1385
*789 FILLER_10_139
*790 FILLER_10_1397
*791 FILLER_10_1409
*792 FILLER_10_141
*793 FILLER_10_1421
*794 FILLER_10_1427
*795 FILLER_10_1429
*796 FILLER_10_1441
*797 FILLER_10_1453
*798 FILLER_10_1465
*799 FILLER_10_1477
*800 FILLER_10_1483
*801 FILLER_10_1485
*802 FILLER_10_1497
*803 FILLER_10_15
*804 FILLER_10_1509
*805 FILLER_10_1521
*806 FILLER_10_153
*807 FILLER_10_1533
*808 FILLER_10_1539
*809 FILLER_10_1541
*810 FILLER_10_1553
*811 FILLER_10_1565
*812 FILLER_10_1577
*813 FILLER_10_1589
*814 FILLER_10_1595
*815 FILLER_10_1597
*816 FILLER_10_165
*817 FILLER_10_177
*818 FILLER_10_189
*819 FILLER_10_195
*820 FILLER_10_197
*821 FILLER_10_209
*822 FILLER_10_221
*823 FILLER_10_233
*824 FILLER_10_245
*825 FILLER_10_251
*826 FILLER_10_253
*827 FILLER_10_265
*828 FILLER_10_27
*829 FILLER_10_277
*830 FILLER_10_289
*831 FILLER_10_29
*832 FILLER_10_3
*833 FILLER_10_301
*834 FILLER_10_307
*835 FILLER_10_309
*836 FILLER_10_321
*837 FILLER_10_333
*838 FILLER_10_345
*839 FILLER_10_357
*840 FILLER_10_363
*841 FILLER_10_365
*842 FILLER_10_377
*843 FILLER_10_389
*844 FILLER_10_401
*845 FILLER_10_41
*846 FILLER_10_413
*847 FILLER_10_419
*848 FILLER_10_421
*849 FILLER_10_433
*850 FILLER_10_445
*851 FILLER_10_457
*852 FILLER_10_469
*853 FILLER_10_475
*854 FILLER_10_477
*855 FILLER_10_489
*856 FILLER_10_501
*857 FILLER_10_513
*858 FILLER_10_525
*859 FILLER_10_53
*860 FILLER_10_531
*861 FILLER_10_533
*862 FILLER_10_545
*863 FILLER_10_557
*864 FILLER_10_569
*865 FILLER_10_581
*866 FILLER_10_587
*867 FILLER_10_589
*868 FILLER_10_601
*869 FILLER_10_613
*870 FILLER_10_625
*871 FILLER_10_637
*872 FILLER_10_643
*873 FILLER_10_645
*874 FILLER_10_65
*875 FILLER_10_657
*876 FILLER_10_669
*877 FILLER_10_681
*878 FILLER_10_693
*879 FILLER_10_699
*880 FILLER_10_701
*881 FILLER_10_713
*882 FILLER_10_725
*883 FILLER_10_737
*884 FILLER_10_749
*885 FILLER_10_755
*886 FILLER_10_757
*887 FILLER_10_769
*888 FILLER_10_77
*889 FILLER_10_781
*890 FILLER_10_793
*891 FILLER_10_805
*892 FILLER_10_811
*893 FILLER_10_813
*894 FILLER_10_825
*895 FILLER_10_83
*896 FILLER_10_837
*897 FILLER_10_849
*898 FILLER_10_85
*899 FILLER_10_861
*900 FILLER_10_867
*901 FILLER_10_869
*902 FILLER_10_881
*903 FILLER_10_893
*904 FILLER_10_905
*905 FILLER_10_917
*906 FILLER_10_923
*907 FILLER_10_925
*908 FILLER_10_937
*909 FILLER_10_949
*910 FILLER_10_961
*911 FILLER_10_97
*912 FILLER_10_973
*913 FILLER_10_979
*914 FILLER_10_981
*915 FILLER_10_993
*916 FILLER_11_1001
*917 FILLER_11_1007
*918 FILLER_11_1009
*919 FILLER_11_1021
*920 FILLER_11_1033
*921 FILLER_11_1045
*922 FILLER_11_105
*923 FILLER_11_1057
*924 FILLER_11_1063
*925 FILLER_11_1065
*926 FILLER_11_1077
*927 FILLER_11_1089
*928 FILLER_11_1101
*929 FILLER_11_111
*930 FILLER_11_1113
*931 FILLER_11_1119
*932 FILLER_11_1121
*933 FILLER_11_113
*934 FILLER_11_1133
*935 FILLER_11_1145
*936 FILLER_11_1157
*937 FILLER_11_1169
*938 FILLER_11_1175
*939 FILLER_11_1177
*940 FILLER_11_1189
*941 FILLER_11_1201
*942 FILLER_11_1213
*943 FILLER_11_1225
*944 FILLER_11_1231
*945 FILLER_11_1233
*946 FILLER_11_1245
*947 FILLER_11_125
*948 FILLER_11_1257
*949 FILLER_11_1269
*950 FILLER_11_1281
*951 FILLER_11_1287
*952 FILLER_11_1289
*953 FILLER_11_1301
*954 FILLER_11_1313
*955 FILLER_11_1325
*956 FILLER_11_1337
*957 FILLER_11_1343
*958 FILLER_11_1345
*959 FILLER_11_1357
*960 FILLER_11_1369
*961 FILLER_11_137
*962 FILLER_11_1381
*963 FILLER_11_1393
*964 FILLER_11_1399
*965 FILLER_11_1401
*966 FILLER_11_1413
*967 FILLER_11_1425
*968 FILLER_11_1437
*969 FILLER_11_1449
*970 FILLER_11_1455
*971 FILLER_11_1457
*972 FILLER_11_1469
*973 FILLER_11_1481
*974 FILLER_11_149
*975 FILLER_11_1493
*976 FILLER_11_15
*977 FILLER_11_1505
*978 FILLER_11_1511
*979 FILLER_11_1513
*980 FILLER_11_1525
*981 FILLER_11_1537
*982 FILLER_11_1549
*983 FILLER_11_1561
*984 FILLER_11_1567
*985 FILLER_11_1569
*986 FILLER_11_1581
*987 FILLER_11_1589
*988 FILLER_11_1593
*989 FILLER_11_1601
*990 FILLER_11_161
*991 FILLER_11_167
*992 FILLER_11_169
*993 FILLER_11_181
*994 FILLER_11_193
*995 FILLER_11_205
*996 FILLER_11_217
*997 FILLER_11_223
*998 FILLER_11_225
*999 FILLER_11_237
*1000 FILLER_11_249
*1001 FILLER_11_261
*1002 FILLER_11_27
*1003 FILLER_11_273
*1004 FILLER_11_279
*1005 FILLER_11_281
*1006 FILLER_11_293
*1007 FILLER_11_3
*1008 FILLER_11_305
*1009 FILLER_11_317
*1010 FILLER_11_329
*1011 FILLER_11_335
*1012 FILLER_11_337
*1013 FILLER_11_349
*1014 FILLER_11_361
*1015 FILLER_11_373
*1016 FILLER_11_385
*1017 FILLER_11_39
*1018 FILLER_11_391
*1019 FILLER_11_393
*1020 FILLER_11_405
*1021 FILLER_11_417
*1022 FILLER_11_429
*1023 FILLER_11_441
*1024 FILLER_11_447
*1025 FILLER_11_449
*1026 FILLER_11_461
*1027 FILLER_11_473
*1028 FILLER_11_485
*1029 FILLER_11_497
*1030 FILLER_11_503
*1031 FILLER_11_505
*1032 FILLER_11_51
*1033 FILLER_11_517
*1034 FILLER_11_529
*1035 FILLER_11_541
*1036 FILLER_11_55
*1037 FILLER_11_553
*1038 FILLER_11_559
*1039 FILLER_11_561
*1040 FILLER_11_57
*1041 FILLER_11_573
*1042 FILLER_11_585
*1043 FILLER_11_597
*1044 FILLER_11_609
*1045 FILLER_11_615
*1046 FILLER_11_617
*1047 FILLER_11_629
*1048 FILLER_11_641
*1049 FILLER_11_653
*1050 FILLER_11_665
*1051 FILLER_11_671
*1052 FILLER_11_673
*1053 FILLER_11_685
*1054 FILLER_11_69
*1055 FILLER_11_697
*1056 FILLER_11_709
*1057 FILLER_11_721
*1058 FILLER_11_727
*1059 FILLER_11_729
*1060 FILLER_11_741
*1061 FILLER_11_753
*1062 FILLER_11_765
*1063 FILLER_11_777
*1064 FILLER_11_783
*1065 FILLER_11_785
*1066 FILLER_11_797
*1067 FILLER_11_809
*1068 FILLER_11_81
*1069 FILLER_11_821
*1070 FILLER_11_833
*1071 FILLER_11_839
*1072 FILLER_11_841
*1073 FILLER_11_853
*1074 FILLER_11_865
*1075 FILLER_11_877
*1076 FILLER_11_889
*1077 FILLER_11_895
*1078 FILLER_11_897
*1079 FILLER_11_909
*1080 FILLER_11_921
*1081 FILLER_11_93
*1082 FILLER_11_933
*1083 FILLER_11_945
*1084 FILLER_11_951
*1085 FILLER_11_953
*1086 FILLER_11_965
*1087 FILLER_11_977
*1088 FILLER_11_989
*1089 FILLER_12_1005
*1090 FILLER_12_1017
*1091 FILLER_12_1029
*1092 FILLER_12_1035
*1093 FILLER_12_1037
*1094 FILLER_12_1049
*1095 FILLER_12_1061
*1096 FILLER_12_1073
*1097 FILLER_12_1085
*1098 FILLER_12_109
*1099 FILLER_12_1091
*1100 FILLER_12_1093
*1101 FILLER_12_1105
*1102 FILLER_12_1117
*1103 FILLER_12_1129
*1104 FILLER_12_1141
*1105 FILLER_12_1147
*1106 FILLER_12_1149
*1107 FILLER_12_1161
*1108 FILLER_12_1173
*1109 FILLER_12_1178
*1110 FILLER_12_1190
*1111 FILLER_12_1202
*1112 FILLER_12_1205
*1113 FILLER_12_121
*1114 FILLER_12_1211
*1115 FILLER_12_1223
*1116 FILLER_12_1235
*1117 FILLER_12_1247
*1118 FILLER_12_1259
*1119 FILLER_12_1261
*1120 FILLER_12_1273
*1121 FILLER_12_1285
*1122 FILLER_12_1297
*1123 FILLER_12_1309
*1124 FILLER_12_1315
*1125 FILLER_12_1317
*1126 FILLER_12_1329
*1127 FILLER_12_133
*1128 FILLER_12_1341
*1129 FILLER_12_1353
*1130 FILLER_12_1365
*1131 FILLER_12_1371
*1132 FILLER_12_1373
*1133 FILLER_12_1385
*1134 FILLER_12_139
*1135 FILLER_12_1397
*1136 FILLER_12_1409
*1137 FILLER_12_141
*1138 FILLER_12_1421
*1139 FILLER_12_1427
*1140 FILLER_12_1429
*1141 FILLER_12_1441
*1142 FILLER_12_1453
*1143 FILLER_12_1465
*1144 FILLER_12_1477
*1145 FILLER_12_1483
*1146 FILLER_12_1485
*1147 FILLER_12_1497
*1148 FILLER_12_15
*1149 FILLER_12_1509
*1150 FILLER_12_1521
*1151 FILLER_12_153
*1152 FILLER_12_1533
*1153 FILLER_12_1539
*1154 FILLER_12_1541
*1155 FILLER_12_1553
*1156 FILLER_12_1565
*1157 FILLER_12_1577
*1158 FILLER_12_1589
*1159 FILLER_12_1595
*1160 FILLER_12_1597
*1161 FILLER_12_165
*1162 FILLER_12_177
*1163 FILLER_12_189
*1164 FILLER_12_195
*1165 FILLER_12_197
*1166 FILLER_12_209
*1167 FILLER_12_221
*1168 FILLER_12_233
*1169 FILLER_12_245
*1170 FILLER_12_251
*1171 FILLER_12_253
*1172 FILLER_12_265
*1173 FILLER_12_27
*1174 FILLER_12_277
*1175 FILLER_12_289
*1176 FILLER_12_29
*1177 FILLER_12_3
*1178 FILLER_12_301
*1179 FILLER_12_307
*1180 FILLER_12_309
*1181 FILLER_12_321
*1182 FILLER_12_333
*1183 FILLER_12_345
*1184 FILLER_12_357
*1185 FILLER_12_363
*1186 FILLER_12_365
*1187 FILLER_12_377
*1188 FILLER_12_389
*1189 FILLER_12_401
*1190 FILLER_12_41
*1191 FILLER_12_413
*1192 FILLER_12_419
*1193 FILLER_12_421
*1194 FILLER_12_433
*1195 FILLER_12_445
*1196 FILLER_12_457
*1197 FILLER_12_469
*1198 FILLER_12_475
*1199 FILLER_12_477
*1200 FILLER_12_489
*1201 FILLER_12_501
*1202 FILLER_12_513
*1203 FILLER_12_525
*1204 FILLER_12_53
*1205 FILLER_12_531
*1206 FILLER_12_533
*1207 FILLER_12_545
*1208 FILLER_12_557
*1209 FILLER_12_569
*1210 FILLER_12_581
*1211 FILLER_12_587
*1212 FILLER_12_589
*1213 FILLER_12_601
*1214 FILLER_12_613
*1215 FILLER_12_625
*1216 FILLER_12_637
*1217 FILLER_12_643
*1218 FILLER_12_645
*1219 FILLER_12_65
*1220 FILLER_12_657
*1221 FILLER_12_669
*1222 FILLER_12_681
*1223 FILLER_12_693
*1224 FILLER_12_699
*1225 FILLER_12_701
*1226 FILLER_12_713
*1227 FILLER_12_725
*1228 FILLER_12_737
*1229 FILLER_12_749
*1230 FILLER_12_755
*1231 FILLER_12_757
*1232 FILLER_12_769
*1233 FILLER_12_77
*1234 FILLER_12_781
*1235 FILLER_12_793
*1236 FILLER_12_805
*1237 FILLER_12_811
*1238 FILLER_12_813
*1239 FILLER_12_825
*1240 FILLER_12_83
*1241 FILLER_12_837
*1242 FILLER_12_849
*1243 FILLER_12_85
*1244 FILLER_12_861
*1245 FILLER_12_867
*1246 FILLER_12_869
*1247 FILLER_12_881
*1248 FILLER_12_893
*1249 FILLER_12_905
*1250 FILLER_12_917
*1251 FILLER_12_923
*1252 FILLER_12_925
*1253 FILLER_12_937
*1254 FILLER_12_949
*1255 FILLER_12_961
*1256 FILLER_12_97
*1257 FILLER_12_973
*1258 FILLER_12_979
*1259 FILLER_12_981
*1260 FILLER_12_993
*1261 FILLER_13_1001
*1262 FILLER_13_1007
*1263 FILLER_13_1009
*1264 FILLER_13_1021
*1265 FILLER_13_1033
*1266 FILLER_13_1045
*1267 FILLER_13_105
*1268 FILLER_13_1057
*1269 FILLER_13_1063
*1270 FILLER_13_1065
*1271 FILLER_13_1077
*1272 FILLER_13_1089
*1273 FILLER_13_1101
*1274 FILLER_13_111
*1275 FILLER_13_1113
*1276 FILLER_13_1119
*1277 FILLER_13_1121
*1278 FILLER_13_113
*1279 FILLER_13_1133
*1280 FILLER_13_1145
*1281 FILLER_13_1157
*1282 FILLER_13_1169
*1283 FILLER_13_1175
*1284 FILLER_13_1177
*1285 FILLER_13_1189
*1286 FILLER_13_1201
*1287 FILLER_13_1213
*1288 FILLER_13_1225
*1289 FILLER_13_1231
*1290 FILLER_13_1233
*1291 FILLER_13_1245
*1292 FILLER_13_125
*1293 FILLER_13_1257
*1294 FILLER_13_1269
*1295 FILLER_13_1281
*1296 FILLER_13_1287
*1297 FILLER_13_1289
*1298 FILLER_13_1301
*1299 FILLER_13_1313
*1300 FILLER_13_1325
*1301 FILLER_13_1337
*1302 FILLER_13_1343
*1303 FILLER_13_1345
*1304 FILLER_13_1357
*1305 FILLER_13_1369
*1306 FILLER_13_137
*1307 FILLER_13_1381
*1308 FILLER_13_1393
*1309 FILLER_13_1399
*1310 FILLER_13_1401
*1311 FILLER_13_1413
*1312 FILLER_13_1425
*1313 FILLER_13_1437
*1314 FILLER_13_1449
*1315 FILLER_13_1455
*1316 FILLER_13_1457
*1317 FILLER_13_1469
*1318 FILLER_13_1481
*1319 FILLER_13_149
*1320 FILLER_13_1493
*1321 FILLER_13_15
*1322 FILLER_13_1505
*1323 FILLER_13_1511
*1324 FILLER_13_1513
*1325 FILLER_13_1525
*1326 FILLER_13_1537
*1327 FILLER_13_1549
*1328 FILLER_13_1561
*1329 FILLER_13_1567
*1330 FILLER_13_1569
*1331 FILLER_13_1581
*1332 FILLER_13_1589
*1333 FILLER_13_1593
*1334 FILLER_13_1601
*1335 FILLER_13_161
*1336 FILLER_13_167
*1337 FILLER_13_169
*1338 FILLER_13_181
*1339 FILLER_13_193
*1340 FILLER_13_205
*1341 FILLER_13_217
*1342 FILLER_13_223
*1343 FILLER_13_225
*1344 FILLER_13_237
*1345 FILLER_13_249
*1346 FILLER_13_261
*1347 FILLER_13_27
*1348 FILLER_13_273
*1349 FILLER_13_279
*1350 FILLER_13_281
*1351 FILLER_13_293
*1352 FILLER_13_3
*1353 FILLER_13_305
*1354 FILLER_13_317
*1355 FILLER_13_329
*1356 FILLER_13_335
*1357 FILLER_13_337
*1358 FILLER_13_349
*1359 FILLER_13_361
*1360 FILLER_13_373
*1361 FILLER_13_385
*1362 FILLER_13_39
*1363 FILLER_13_391
*1364 FILLER_13_393
*1365 FILLER_13_405
*1366 FILLER_13_417
*1367 FILLER_13_429
*1368 FILLER_13_441
*1369 FILLER_13_447
*1370 FILLER_13_449
*1371 FILLER_13_461
*1372 FILLER_13_473
*1373 FILLER_13_485
*1374 FILLER_13_497
*1375 FILLER_13_503
*1376 FILLER_13_505
*1377 FILLER_13_51
*1378 FILLER_13_517
*1379 FILLER_13_529
*1380 FILLER_13_541
*1381 FILLER_13_55
*1382 FILLER_13_553
*1383 FILLER_13_559
*1384 FILLER_13_561
*1385 FILLER_13_57
*1386 FILLER_13_573
*1387 FILLER_13_585
*1388 FILLER_13_597
*1389 FILLER_13_609
*1390 FILLER_13_615
*1391 FILLER_13_617
*1392 FILLER_13_629
*1393 FILLER_13_641
*1394 FILLER_13_653
*1395 FILLER_13_665
*1396 FILLER_13_671
*1397 FILLER_13_673
*1398 FILLER_13_685
*1399 FILLER_13_69
*1400 FILLER_13_697
*1401 FILLER_13_709
*1402 FILLER_13_721
*1403 FILLER_13_727
*1404 FILLER_13_729
*1405 FILLER_13_741
*1406 FILLER_13_753
*1407 FILLER_13_765
*1408 FILLER_13_777
*1409 FILLER_13_783
*1410 FILLER_13_785
*1411 FILLER_13_797
*1412 FILLER_13_809
*1413 FILLER_13_81
*1414 FILLER_13_821
*1415 FILLER_13_833
*1416 FILLER_13_839
*1417 FILLER_13_841
*1418 FILLER_13_853
*1419 FILLER_13_865
*1420 FILLER_13_877
*1421 FILLER_13_889
*1422 FILLER_13_895
*1423 FILLER_13_897
*1424 FILLER_13_909
*1425 FILLER_13_921
*1426 FILLER_13_93
*1427 FILLER_13_933
*1428 FILLER_13_945
*1429 FILLER_13_951
*1430 FILLER_13_953
*1431 FILLER_13_965
*1432 FILLER_13_977
*1433 FILLER_13_989
*1434 FILLER_14_1005
*1435 FILLER_14_1017
*1436 FILLER_14_1029
*1437 FILLER_14_1035
*1438 FILLER_14_1037
*1439 FILLER_14_1049
*1440 FILLER_14_1061
*1441 FILLER_14_1073
*1442 FILLER_14_1085
*1443 FILLER_14_109
*1444 FILLER_14_1091
*1445 FILLER_14_1093
*1446 FILLER_14_1105
*1447 FILLER_14_1117
*1448 FILLER_14_1129
*1449 FILLER_14_1141
*1450 FILLER_14_1147
*1451 FILLER_14_1149
*1452 FILLER_14_1161
*1453 FILLER_14_1173
*1454 FILLER_14_1185
*1455 FILLER_14_1197
*1456 FILLER_14_1203
*1457 FILLER_14_1205
*1458 FILLER_14_121
*1459 FILLER_14_1217
*1460 FILLER_14_1229
*1461 FILLER_14_1241
*1462 FILLER_14_1253
*1463 FILLER_14_1259
*1464 FILLER_14_1261
*1465 FILLER_14_1273
*1466 FILLER_14_1285
*1467 FILLER_14_1297
*1468 FILLER_14_1309
*1469 FILLER_14_1315
*1470 FILLER_14_1317
*1471 FILLER_14_1329
*1472 FILLER_14_133
*1473 FILLER_14_1341
*1474 FILLER_14_1353
*1475 FILLER_14_1365
*1476 FILLER_14_1371
*1477 FILLER_14_1373
*1478 FILLER_14_1385
*1479 FILLER_14_139
*1480 FILLER_14_1397
*1481 FILLER_14_1409
*1482 FILLER_14_141
*1483 FILLER_14_1421
*1484 FILLER_14_1427
*1485 FILLER_14_1429
*1486 FILLER_14_1441
*1487 FILLER_14_1453
*1488 FILLER_14_1465
*1489 FILLER_14_1477
*1490 FILLER_14_1483
*1491 FILLER_14_1485
*1492 FILLER_14_1497
*1493 FILLER_14_15
*1494 FILLER_14_1509
*1495 FILLER_14_1521
*1496 FILLER_14_153
*1497 FILLER_14_1533
*1498 FILLER_14_1539
*1499 FILLER_14_1541
*1500 FILLER_14_1553
*1501 FILLER_14_1565
*1502 FILLER_14_1577
*1503 FILLER_14_1589
*1504 FILLER_14_1595
*1505 FILLER_14_1597
*1506 FILLER_14_1601
*1507 FILLER_14_165
*1508 FILLER_14_177
*1509 FILLER_14_189
*1510 FILLER_14_195
*1511 FILLER_14_197
*1512 FILLER_14_209
*1513 FILLER_14_221
*1514 FILLER_14_233
*1515 FILLER_14_245
*1516 FILLER_14_251
*1517 FILLER_14_253
*1518 FILLER_14_265
*1519 FILLER_14_27
*1520 FILLER_14_277
*1521 FILLER_14_289
*1522 FILLER_14_29
*1523 FILLER_14_3
*1524 FILLER_14_301
*1525 FILLER_14_307
*1526 FILLER_14_309
*1527 FILLER_14_321
*1528 FILLER_14_333
*1529 FILLER_14_345
*1530 FILLER_14_357
*1531 FILLER_14_363
*1532 FILLER_14_365
*1533 FILLER_14_377
*1534 FILLER_14_389
*1535 FILLER_14_401
*1536 FILLER_14_41
*1537 FILLER_14_413
*1538 FILLER_14_419
*1539 FILLER_14_421
*1540 FILLER_14_433
*1541 FILLER_14_445
*1542 FILLER_14_457
*1543 FILLER_14_469
*1544 FILLER_14_475
*1545 FILLER_14_477
*1546 FILLER_14_489
*1547 FILLER_14_501
*1548 FILLER_14_513
*1549 FILLER_14_525
*1550 FILLER_14_53
*1551 FILLER_14_531
*1552 FILLER_14_533
*1553 FILLER_14_545
*1554 FILLER_14_557
*1555 FILLER_14_569
*1556 FILLER_14_581
*1557 FILLER_14_587
*1558 FILLER_14_589
*1559 FILLER_14_601
*1560 FILLER_14_613
*1561 FILLER_14_625
*1562 FILLER_14_637
*1563 FILLER_14_643
*1564 FILLER_14_645
*1565 FILLER_14_65
*1566 FILLER_14_657
*1567 FILLER_14_669
*1568 FILLER_14_681
*1569 FILLER_14_693
*1570 FILLER_14_699
*1571 FILLER_14_701
*1572 FILLER_14_713
*1573 FILLER_14_725
*1574 FILLER_14_737
*1575 FILLER_14_749
*1576 FILLER_14_755
*1577 FILLER_14_757
*1578 FILLER_14_769
*1579 FILLER_14_77
*1580 FILLER_14_781